ligand.pdb
 OpenBabel05291819093D

 14 14  0  0  1  0  0  0  0  0999 V2000
   13.1370   -5.9780  -10.3340 C   0  0  0  0  0  0  0  0  0  0  0  0
   16.9930  -11.1460  -10.5150 C   0  0  0  0  0  0  0  0  0  0  0  0
   13.0260   -6.8780  -11.5540 C   0  0  1  0  0  0  0  0  0  0  0  0
   12.3870   -8.2310  -11.2430 C   0  0  0  0  0  0  0  0  0  0  0  0
   14.3730   -9.5060  -10.5560 C   0  0  0  0  0  0  0  0  0  0  0  0
   16.2820  -10.6760   -9.4170 C   0  0  0  0  0  0  0  0  0  0  0  0
   16.8700  -10.7210   -8.1610 C   0  0  0  0  0  0  0  0  0  0  0  0
   18.1570  -11.2160   -8.0110 C   0  0  0  0  0  0  0  0  0  0  0  0
   18.8510  -11.6930   -9.1000 C   0  0  0  0  0  0  0  0  0  0  0  0
   18.2740  -11.6530  -10.3470 C   0  0  0  0  0  0  0  0  0  0  0  0
   13.1530   -8.9960  -10.2740 N   0  0  0  0  0  0  0  0  0  0  0  0
   14.9670  -10.1580   -9.5040 N   0  0  0  0  0  0  0  0  0  0  0  0
   14.8980   -9.3990  -11.6720 O   0  0  0  0  0  0  0  0  0  0  0  0
   12.2660   -6.2320  -12.5670 O   0  0  0  0  0  0  0  0  0  0  0  0
  2 10  2  0  0  0  0
  2  6  1  0  0  0  0
  3  4  1  0  0  0  0
  3  1  1  1  0  0  0
  4 11  1  0  0  0  0
  5 11  1  0  0  0  0
  5 12  1  0  0  0  0
  6  7  2  0  0  0  0
  7  8  1  0  0  0  0
  9  8  2  0  0  0  0
 10  9  1  0  0  0  0
 12  6  1  0  0  0  0
 13  5  2  0  0  0  0
 14  3  1  0  0  0  0
M  END
$$$$
