ligand.pdb
  rDOCK(R)          3D
libRbt.so/2013.1/901 2013/11/27
 14 14  0  0  0  0  0  0  0  0999 V2000
   13.4422   -5.8051  -11.9565 C   0  0  0  0  0  0
   16.9524  -10.7767  -10.7014 C   0  0  0  0  0  0
   13.0629   -7.0965  -12.6630 C   0  0  0  0  0  0
   12.3545   -8.0937  -11.7469 C   0  0  0  0  0  0
   14.2848   -9.3350  -10.8665 C   0  0  0  0  0  0
   16.2383  -10.2934   -9.6113 C   0  0  0  0  0  0
   16.7476  -10.4777   -8.3338 C   0  0  0  0  0  0
   17.9618  -11.1238   -8.1538 C   0  0  0  0  0  0
   18.6577  -11.6127   -9.2362 C   0  0  0  0  0  0
   18.1583  -11.4351  -10.5045 C   0  0  0  0  0  0
   13.2047   -8.5484  -10.6600 N   0  0  0  0  0  0
   14.9955   -9.6250   -9.7284 N   0  0  0  0  0  0
   14.5938   -9.7615  -11.9869 O   0  0  0  0  0  0
   12.2218   -6.8140  -13.7737 O   0  0  0  0  0  0
  2 10  2  0  0  0
  2  6  1  0  0  0
  3  4  1  0  0  0
  3  1  1  0  0  0
  4 11  1  0  0  0
  5 11  1  0  0  0
  5 12  1  0  0  0
  6  7  2  0  0  0
  7  8  1  0  0  0
  9  8  2  0  0  0
 10  9  1  0  0  0
 12  6  1  0  0  0
 13  5  2  0  0  0
 14  3  1  0  0  0
M  END
>  <CHROM.1>
-63.68939931,-68.48116190,0.01708895,15.10376519,-9.25836062,-10.79475089
2.66272849,0.67993877,-1.56566089

>  <Name>
ligand.pdb

>  <RI>
2.6601e+07

>  <Rbt.Current_Directory>
/home/v/Downloads/rDock_2013.1_src/bin

>  <Rbt.Executable>
rbdock ($Id: //depot/dev/client3/rdock/2013.1/src/exe/rbdock.cxx#4 $)

>  <Rbt.Library>
libRbt.so (2013.1, Build901 2013/11/27)

>  <Rbt.Parameter_File>
/home/v/Downloads/rDock_2013.1_src/data/scripts/dock.prm

>  <Rbt.Receptor>
/home/v/Desktop/receptorr.prm

>  <SCORE>
7.77141

>  <SCORE.INTER>
8.4

>  <SCORE.INTER.CONST>
1

>  <SCORE.INTER.POLAR>
0

>  <SCORE.INTER.REPUL>
0

>  <SCORE.INTER.ROT>
3

>  <SCORE.INTER.VDW>
0

>  <SCORE.INTER.norm>
0.6

>  <SCORE.INTRA>
-0.628586

>  <SCORE.INTRA.DIHEDRAL>
-1.52059

>  <SCORE.INTRA.DIHEDRAL.0>
1.6411

>  <SCORE.INTRA.POLAR>
0

>  <SCORE.INTRA.POLAR.0>
0

>  <SCORE.INTRA.REPUL>
0

>  <SCORE.INTRA.REPUL.0>
0

>  <SCORE.INTRA.VDW>
0.131709

>  <SCORE.INTRA.VDW.0>
-0.639572

>  <SCORE.INTRA.norm>
-0.044899

>  <SCORE.RESTR>
0

>  <SCORE.RESTR.CAVITY>
0

>  <SCORE.RESTR.norm>
0

>  <SCORE.SYSTEM>
0

>  <SCORE.SYSTEM.CONST>
0

>  <SCORE.SYSTEM.DIHEDRAL>
0

>  <SCORE.SYSTEM.norm>
0

>  <SCORE.heavy>
14

>  <SCORE.norm>
0.555101

$$$$
ligand.pdb
  rDOCK(R)          3D
libRbt.so/2013.1/901 2013/11/27
 14 14  0  0  0  0  0  0  0  0999 V2000
   14.3561   -6.0867  -12.2976 C   0  0  0  0  0  0
   17.3470  -11.3658  -10.9240 C   0  0  0  0  0  0
   13.8872   -7.3420  -13.0154 C   0  0  0  0  0  0
   13.0589   -8.2666  -12.1239 C   0  0  0  0  0  0
   14.8337   -9.6804  -11.1789 C   0  0  0  0  0  0
   16.6459  -10.8132   -9.8586 C   0  0  0  0  0  0
   17.0931  -11.0396   -8.5647 C   0  0  0  0  0  0
   18.2344  -11.7962   -8.3439 C   0  0  0  0  0  0
   18.9167  -12.3526   -9.4022 C   0  0  0  0  0  0
   18.4784  -12.1338  -10.6866 C   0  0  0  0  0  0
   13.8262   -8.7949  -11.0090 N   0  0  0  0  0  0
   15.4760  -10.0314  -10.0175 N   0  0  0  0  0  0
   15.1381  -10.1384  -12.2880 O   0  0  0  0  0  0
   13.1156   -6.9900  -14.1563 O   0  0  0  0  0  0
  2 10  2  0  0  0
  2  6  1  0  0  0
  3  4  1  0  0  0
  3  1  1  0  0  0
  4 11  1  0  0  0
  5 11  1  0  0  0
  5 12  1  0  0  0
  6  7  2  0  0  0
  7  8  1  0  0  0
  9  8  2  0  0  0
 10  9  1  0  0  0
 12  6  1  0  0  0
 13  5  2  0  0  0
 14  3  1  0  0  0
M  END
>  <CHROM.1>
-63.90573064,-68.58484664,0.01708895,15.65293870,-9.68043632,-11.07985924
2.61770260,0.77452212,-1.53921675

>  <Name>
ligand.pdb

>  <RI>
2.6601e+07

>  <Rbt.Current_Directory>
/home/v/Downloads/rDock_2013.1_src/bin

>  <Rbt.Executable>
rbdock ($Id: //depot/dev/client3/rdock/2013.1/src/exe/rbdock.cxx#4 $)

>  <Rbt.Library>
libRbt.so (2013.1, Build901 2013/11/27)

>  <Rbt.Parameter_File>
/home/v/Downloads/rDock_2013.1_src/data/scripts/dock.prm

>  <Rbt.Receptor>
/home/v/Desktop/receptorr.prm

>  <SCORE>
7.77144

>  <SCORE.INTER>
8.4

>  <SCORE.INTER.CONST>
1

>  <SCORE.INTER.POLAR>
0

>  <SCORE.INTER.REPUL>
0

>  <SCORE.INTER.ROT>
3

>  <SCORE.INTER.VDW>
0

>  <SCORE.INTER.norm>
0.6

>  <SCORE.INTRA>
-0.62856

>  <SCORE.INTRA.DIHEDRAL>
-1.51349

>  <SCORE.INTRA.DIHEDRAL.0>
1.6411

>  <SCORE.INTRA.POLAR>
0

>  <SCORE.INTRA.POLAR.0>
0

>  <SCORE.INTRA.REPUL>
0

>  <SCORE.INTRA.REPUL.0>
0

>  <SCORE.INTRA.VDW>
0.128185

>  <SCORE.INTRA.VDW.0>
-0.639572

>  <SCORE.INTRA.norm>
-0.0448971

>  <SCORE.RESTR>
0

>  <SCORE.RESTR.CAVITY>
0

>  <SCORE.RESTR.norm>
0

>  <SCORE.SYSTEM>
0

>  <SCORE.SYSTEM.CONST>
0

>  <SCORE.SYSTEM.DIHEDRAL>
0

>  <SCORE.SYSTEM.norm>
0

>  <SCORE.heavy>
14

>  <SCORE.norm>
0.555103

$$$$
ligand.pdb
  rDOCK(R)          3D
libRbt.so/2013.1/901 2013/11/27
 14 14  0  0  0  0  0  0  0  0999 V2000
   14.6564   -4.9464  -10.6240 C   0  0  0  0  0  0
   17.1813  -10.6113  -10.8053 C   0  0  0  0  0  0
   13.9327   -5.9827  -11.4684 C   0  0  0  0  0  0
   13.1456   -6.9914  -10.6326 C   0  0  0  0  0  0
   14.8618   -8.7185  -10.2957 C   0  0  0  0  0  0
   16.7059  -10.2524   -9.5495 C   0  0  0  0  0  0
   17.2974  -10.8008   -8.4204 C   0  0  0  0  0  0
   18.3590  -11.6842   -8.5488 C   0  0  0  0  0  0
   18.8164  -12.0468   -9.7956 C   0  0  0  0  0  0
   18.2341  -11.5085  -10.9185 C   0  0  0  0  0  0
   14.0058   -7.8030   -9.7886 N   0  0  0  0  0  0
   15.6278   -9.3559   -9.3515 N   0  0  0  0  0  0
   14.9352   -8.9627  -11.5071 O   0  0  0  0  0  0
   13.0428   -5.3387  -12.3709 O   0  0  0  0  0  0
  2 10  2  0  0  0
  2  6  1  0  0  0
  3  4  1  0  0  0
  3  1  1  0  0  0
  4 11  1  0  0  0
  5 11  1  0  0  0
  5 12  1  0  0  0
  6  7  2  0  0  0
  7  8  1  0  0  0
  9  8  2  0  0  0
 10  9  1  0  0  0
 12  6  1  0  0  0
 13  5  2  0  0  0
 14  3  1  0  0  0
M  END
>  <CHROM.1>
-63.98427739,-68.33034088,1.36226425,15.68041113,-8.81167663,-10.34432900
2.82305393,0.87894176,-1.47316887

>  <Name>
ligand.pdb

>  <RI>
2.6601e+07

>  <Rbt.Current_Directory>
/home/v/Downloads/rDock_2013.1_src/bin

>  <Rbt.Executable>
rbdock ($Id: //depot/dev/client3/rdock/2013.1/src/exe/rbdock.cxx#4 $)

>  <Rbt.Library>
libRbt.so (2013.1, Build901 2013/11/27)

>  <Rbt.Parameter_File>
/home/v/Downloads/rDock_2013.1_src/data/scripts/dock.prm

>  <Rbt.Receptor>
/home/v/Desktop/receptorr.prm

>  <SCORE>
7.77153

>  <SCORE.INTER>
8.4

>  <SCORE.INTER.CONST>
1

>  <SCORE.INTER.POLAR>
0

>  <SCORE.INTER.REPUL>
0

>  <SCORE.INTER.ROT>
3

>  <SCORE.INTER.VDW>
0

>  <SCORE.INTER.norm>
0.6

>  <SCORE.INTRA>
-0.628471

>  <SCORE.INTRA.DIHEDRAL>
-1.50945

>  <SCORE.INTRA.DIHEDRAL.0>
1.6411

>  <SCORE.INTRA.POLAR>
0

>  <SCORE.INTRA.POLAR.0>
0

>  <SCORE.INTRA.REPUL>
0

>  <SCORE.INTRA.REPUL.0>
0

>  <SCORE.INTRA.VDW>
0.126253

>  <SCORE.INTRA.VDW.0>
-0.639572

>  <SCORE.INTRA.norm>
-0.0448908

>  <SCORE.RESTR>
0

>  <SCORE.RESTR.CAVITY>
0

>  <SCORE.RESTR.norm>
0

>  <SCORE.SYSTEM>
0

>  <SCORE.SYSTEM.CONST>
0

>  <SCORE.SYSTEM.DIHEDRAL>
0

>  <SCORE.SYSTEM.norm>
0

>  <SCORE.heavy>
14

>  <SCORE.norm>
0.555109

$$$$
ligand.pdb
  rDOCK(R)          3D
libRbt.so/2013.1/901 2013/11/27
 14 14  0  0  0  0  0  0  0  0999 V2000
   14.4346   -5.8140  -12.0681 C   0  0  0  0  0  0
   17.3745  -11.0577  -10.4689 C   0  0  0  0  0  0
   13.8882   -7.1046  -12.6569 C   0  0  0  0  0  0
   13.0973   -7.9350  -11.6467 C   0  0  0  0  0  0
   14.8932   -9.3226  -10.7026 C   0  0  0  0  0  0
   16.7576  -10.4016   -9.4101 C   0  0  0  0  0  0
   17.2813  -10.5383   -8.1325 C   0  0  0  0  0  0
   18.4151  -11.3092   -7.9226 C   0  0  0  0  0  0
   19.0136  -11.9679   -8.9728 C   0  0  0  0  0  0
   18.4992  -11.8383  -10.2409 C   0  0  0  0  0  0
   13.9212   -8.3964  -10.5425 N   0  0  0  0  0  0
   15.5999   -9.5998   -9.5587 N   0  0  0  0  0  0
   15.1139   -9.8759  -11.7878 O   0  0  0  0  0  0
   13.0524   -6.8155  -13.7700 O   0  0  0  0  0  0
  2 10  2  0  0  0
  2  6  1  0  0  0
  3  4  1  0  0  0
  3  1  1  0  0  0
  4 11  1  0  0  0
  5 11  1  0  0  0
  5 12  1  0  0  0
  6  7  2  0  0  0
  7  8  1  0  0  0
  9  8  2  0  0  0
 10  9  1  0  0  0
 12  6  1  0  0  0
 13  5  2  0  0  0
 14  3  1  0  0  0
M  END
>  <CHROM.1>
-63.63264906,-68.81554545,0.01708895,15.71648877,-9.33821586,-10.65364749
2.71205145,0.80092422,-1.68726670

>  <Name>
ligand.pdb

>  <RI>
2.6601e+07

>  <Rbt.Current_Directory>
/home/v/Downloads/rDock_2013.1_src/bin

>  <Rbt.Executable>
rbdock ($Id: //depot/dev/client3/rdock/2013.1/src/exe/rbdock.cxx#4 $)

>  <Rbt.Library>
libRbt.so (2013.1, Build901 2013/11/27)

>  <Rbt.Parameter_File>
/home/v/Downloads/rDock_2013.1_src/data/scripts/dock.prm

>  <Rbt.Receptor>
/home/v/Desktop/receptorr.prm

>  <SCORE>
7.77147

>  <SCORE.INTER>
8.4

>  <SCORE.INTER.CONST>
1

>  <SCORE.INTER.POLAR>
0

>  <SCORE.INTER.REPUL>
0

>  <SCORE.INTER.ROT>
3

>  <SCORE.INTER.VDW>
0

>  <SCORE.INTER.norm>
0.6

>  <SCORE.INTRA>
-0.628528

>  <SCORE.INTRA.DIHEDRAL>
-1.51743

>  <SCORE.INTRA.DIHEDRAL.0>
1.6411

>  <SCORE.INTRA.POLAR>
0

>  <SCORE.INTRA.POLAR.0>
0

>  <SCORE.INTRA.REPUL>
0

>  <SCORE.INTRA.REPUL.0>
0

>  <SCORE.INTRA.VDW>
0.130188

>  <SCORE.INTRA.VDW.0>
-0.639572

>  <SCORE.INTRA.norm>
-0.0448949

>  <SCORE.RESTR>
0

>  <SCORE.RESTR.CAVITY>
0

>  <SCORE.RESTR.norm>
0

>  <SCORE.SYSTEM>
0

>  <SCORE.SYSTEM.CONST>
0

>  <SCORE.SYSTEM.DIHEDRAL>
0

>  <SCORE.SYSTEM.norm>
0

>  <SCORE.heavy>
14

>  <SCORE.norm>
0.555105

$$$$
ligand.pdb
  rDOCK(R)          3D
libRbt.so/2013.1/901 2013/11/27
 14 14  0  0  0  0  0  0  0  0999 V2000
   13.2404   -5.3205  -11.8382 C   0  0  0  0  0  0
   16.6418  -10.5049  -11.8740 C   0  0  0  0  0  0
   12.6401   -6.5122  -12.5663 C   0  0  0  0  0  0
   12.0846   -7.5745  -11.6184 C   0  0  0  0  0  0
   14.0794   -8.9766  -11.3074 C   0  0  0  0  0  0
   16.1942  -10.1390  -10.6100 C   0  0  0  0  0  0
   16.9381  -10.5048   -9.4972 C   0  0  0  0  0  0
   18.1203  -11.2137   -9.6512 C   0  0  0  0  0  0
   18.5513  -11.5854  -10.9046 C   0  0  0  0  0  0
   17.8185  -11.2278  -12.0113 C   0  0  0  0  0  0
   13.1183   -8.1764  -10.7937 N   0  0  0  0  0  0
   14.9981   -9.4150  -10.3863 N   0  0  0  0  0  0
   14.1152   -9.2906  -12.5044 O   0  0  0  0  0  0
   11.5994   -6.0786  -13.4324 O   0  0  0  0  0  0
  2 10  2  0  0  0
  2  6  1  0  0  0
  3  4  1  0  0  0
  3  1  1  0  0  0
  4 11  1  0  0  0
  5 11  1  0  0  0
  5 12  1  0  0  0
  6  7  2  0  0  0
  7  8  1  0  0  0
  9  8  2  0  0  0
 10  9  1  0  0  0
 12  6  1  0  0  0
 13  5  2  0  0  0
 14  3  1  0  0  0
M  END
>  <CHROM.1>
-63.66051259,-68.44922590,1.36226425,14.89759463,-8.94008858,-11.40978677
2.92915649,0.71779433,-1.61495823

>  <Name>
ligand.pdb

>  <RI>
2.6601e+07

>  <Rbt.Current_Directory>
/home/v/Downloads/rDock_2013.1_src/bin

>  <Rbt.Executable>
rbdock ($Id: //depot/dev/client3/rdock/2013.1/src/exe/rbdock.cxx#4 $)

>  <Rbt.Library>
libRbt.so (2013.1, Build901 2013/11/27)

>  <Rbt.Parameter_File>
/home/v/Downloads/rDock_2013.1_src/data/scripts/dock.prm

>  <Rbt.Receptor>
/home/v/Desktop/receptorr.prm

>  <SCORE>
7.77141

>  <SCORE.INTER>
8.4

>  <SCORE.INTER.CONST>
1

>  <SCORE.INTER.POLAR>
0

>  <SCORE.INTER.REPUL>
0

>  <SCORE.INTER.ROT>
3

>  <SCORE.INTER.VDW>
0

>  <SCORE.INTER.norm>
0.6

>  <SCORE.INTRA>
-0.628592

>  <SCORE.INTRA.DIHEDRAL>
-1.51643

>  <SCORE.INTRA.DIHEDRAL.0>
1.6411

>  <SCORE.INTRA.POLAR>
0

>  <SCORE.INTRA.POLAR.0>
0

>  <SCORE.INTRA.REPUL>
0

>  <SCORE.INTRA.REPUL.0>
0

>  <SCORE.INTRA.VDW>
0.129625

>  <SCORE.INTRA.VDW.0>
-0.639572

>  <SCORE.INTRA.norm>
-0.0448994

>  <SCORE.RESTR>
0

>  <SCORE.RESTR.CAVITY>
0

>  <SCORE.RESTR.norm>
0

>  <SCORE.SYSTEM>
0

>  <SCORE.SYSTEM.CONST>
0

>  <SCORE.SYSTEM.DIHEDRAL>
0

>  <SCORE.SYSTEM.norm>
0

>  <SCORE.heavy>
14

>  <SCORE.norm>
0.555101

$$$$
ligand.pdb
  rDOCK(R)          3D
libRbt.so/2013.1/901 2013/11/27
 14 14  0  0  0  0  0  0  0  0999 V2000
   15.7915   -6.1330  -11.6344 C   0  0  0  0  0  0
   17.7686  -11.9395  -10.5160 C   0  0  0  0  0  0
   14.9357   -7.2662  -12.1767 C   0  0  0  0  0  0
   14.1174   -7.9687  -11.0939 C   0  0  0  0  0  0
   15.6886   -9.7296  -10.4065 C   0  0  0  0  0  0
   17.4317  -11.2171   -9.3772 C   0  0  0  0  0  0
   18.0653  -11.5106   -8.1782 C   0  0  0  0  0  0
   19.0327  -12.5032   -8.1255 C   0  0  0  0  0  0
   19.3522  -13.2248   -9.2535 C   0  0  0  0  0  0
   18.7272  -12.9405  -10.4444 C   0  0  0  0  0  0
   14.9548   -8.6334  -10.1101 N   0  0  0  0  0  0
   16.4549  -10.1920   -9.3656 N   0  0  0  0  0  0
   15.6587  -10.2701  -11.5199 O   0  0  0  0  0  0
   14.0514   -6.7729  -13.1745 O   0  0  0  0  0  0
  2 10  2  0  0  0
  2  6  1  0  0  0
  3  4  1  0  0  0
  3  1  1  0  0  0
  4 11  1  0  0  0
  5 11  1  0  0  0
  5 12  1  0  0  0
  6  7  2  0  0  0
  7  8  1  0  0  0
  9  8  2  0  0  0
 10  9  1  0  0  0
 12  6  1  0  0  0
 13  5  2  0  0  0
 14  3  1  0  0  0
M  END
>  <CHROM.1>
-63.89533413,-69.19096389,0.01708895,16.49000858,-9.91189475,-10.46066824
2.98097983,0.98050464,-1.87075754

>  <Name>
ligand.pdb

>  <RI>
2.6601e+07

>  <Rbt.Current_Directory>
/home/v/Downloads/rDock_2013.1_src/bin

>  <Rbt.Executable>
rbdock ($Id: //depot/dev/client3/rdock/2013.1/src/exe/rbdock.cxx#4 $)

>  <Rbt.Library>
libRbt.so (2013.1, Build901 2013/11/27)

>  <Rbt.Parameter_File>
/home/v/Downloads/rDock_2013.1_src/data/scripts/dock.prm

>  <Rbt.Receptor>
/home/v/Desktop/receptorr.prm

>  <SCORE>
7.77173

>  <SCORE.INTER>
8.4

>  <SCORE.INTER.CONST>
1

>  <SCORE.INTER.POLAR>
0

>  <SCORE.INTER.REPUL>
0

>  <SCORE.INTER.ROT>
3

>  <SCORE.INTER.VDW>
0

>  <SCORE.INTER.norm>
0.6

>  <SCORE.INTRA>
-0.628268

>  <SCORE.INTRA.DIHEDRAL>
-1.50523

>  <SCORE.INTRA.DIHEDRAL.0>
1.6411

>  <SCORE.INTRA.POLAR>
0

>  <SCORE.INTRA.POLAR.0>
0

>  <SCORE.INTRA.REPUL>
0

>  <SCORE.INTRA.REPUL.0>
0

>  <SCORE.INTRA.VDW>
0.124345

>  <SCORE.INTRA.VDW.0>
-0.639572

>  <SCORE.INTRA.norm>
-0.0448763

>  <SCORE.RESTR>
0

>  <SCORE.RESTR.CAVITY>
0

>  <SCORE.RESTR.norm>
0

>  <SCORE.SYSTEM>
0

>  <SCORE.SYSTEM.CONST>
0

>  <SCORE.SYSTEM.DIHEDRAL>
0

>  <SCORE.SYSTEM.norm>
0

>  <SCORE.heavy>
14

>  <SCORE.norm>
0.555124

$$$$
ligand.pdb
  rDOCK(R)          3D
libRbt.so/2013.1/901 2013/11/27
 14 14  0  0  0  0  0  0  0  0999 V2000
   13.6680   -6.4102  -10.3899 C   0  0  0  0  0  0
   17.3604  -11.3757  -10.8999 C   0  0  0  0  0  0
   13.0791   -7.6109  -11.1126 C   0  0  0  0  0  0
   12.6760   -8.7405  -10.1655 C   0  0  0  0  0  0
   14.7736  -10.0182  -10.0705 C   0  0  0  0  0  0
   17.0090  -11.0600   -9.5927 C   0  0  0  0  0  0
   17.8754  -11.3914   -8.5607 C   0  0  0  0  0  0
   19.0823  -12.0165   -8.8373 C   0  0  0  0  0  0
   19.4186  -12.3393  -10.1326 C   0  0  0  0  0  0
   18.5644  -12.0154  -11.1596 C   0  0  0  0  0  0
   13.8123   -9.2969   -9.4512 N   0  0  0  0  0  0
   15.7937  -10.4217   -9.2451 N   0  0  0  0  0  0
   14.7259  -10.2954  -11.2761 O   0  0  0  0  0  0
   11.9410   -7.2142  -11.8666 O   0  0  0  0  0  0
  2 10  2  0  0  0
  2  6  1  0  0  0
  3  4  1  0  0  0
  3  1  1  0  0  0
  4 11  1  0  0  0
  5 11  1  0  0  0
  5 12  1  0  0  0
  6  7  2  0  0  0
  7  8  1  0  0  0
  9  8  2  0  0  0
 10  9  1  0  0  0
 12  6  1  0  0  0
 13  5  2  0  0  0
 14  3  1  0  0  0
M  END
>  <CHROM.1>
-63.20196889,-68.88682962,0.50649347,15.57617020,-9.92359992,-10.23695912
3.05092924,0.65093895,-1.67599876

>  <Name>
ligand.pdb

>  <RI>
2.6601e+07

>  <Rbt.Current_Directory>
/home/v/Downloads/rDock_2013.1_src/bin

>  <Rbt.Executable>
rbdock ($Id: //depot/dev/client3/rdock/2013.1/src/exe/rbdock.cxx#4 $)

>  <Rbt.Library>
libRbt.so (2013.1, Build901 2013/11/27)

>  <Rbt.Parameter_File>
/home/v/Downloads/rDock_2013.1_src/data/scripts/dock.prm

>  <Rbt.Receptor>
/home/v/Desktop/receptorr.prm

>  <SCORE>
7.77183

>  <SCORE.INTER>
8.4

>  <SCORE.INTER.CONST>
1

>  <SCORE.INTER.POLAR>
0

>  <SCORE.INTER.REPUL>
0

>  <SCORE.INTER.ROT>
3

>  <SCORE.INTER.VDW>
0

>  <SCORE.INTER.norm>
0.6

>  <SCORE.INTRA>
-0.628172

>  <SCORE.INTRA.DIHEDRAL>
-1.52549

>  <SCORE.INTRA.DIHEDRAL.0>
1.6411

>  <SCORE.INTRA.POLAR>
0

>  <SCORE.INTRA.POLAR.0>
0

>  <SCORE.INTRA.REPUL>
0

>  <SCORE.INTRA.REPUL.0>
0

>  <SCORE.INTRA.VDW>
0.134571

>  <SCORE.INTRA.VDW.0>
-0.639572

>  <SCORE.INTRA.norm>
-0.0448694

>  <SCORE.RESTR>
0

>  <SCORE.RESTR.CAVITY>
0

>  <SCORE.RESTR.norm>
0

>  <SCORE.SYSTEM>
0

>  <SCORE.SYSTEM.CONST>
0

>  <SCORE.SYSTEM.DIHEDRAL>
0

>  <SCORE.SYSTEM.norm>
0

>  <SCORE.heavy>
14

>  <SCORE.norm>
0.555131

$$$$
ligand.pdb
  rDOCK(R)          3D
libRbt.so/2013.1/901 2013/11/27
 14 14  0  0  0  0  0  0  0  0999 V2000
   14.7014   -5.3268  -11.2077 C   0  0  0  0  0  0
   15.7094  -11.1883   -9.4263 C   0  0  0  0  0  0
   13.7364   -6.3731  -11.7414 C   0  0  0  0  0  0
   12.7241   -6.8414  -10.6966 C   0  0  0  0  0  0
   13.9486   -8.7302   -9.7092 C   0  0  0  0  0  0
   15.3483  -10.3417   -8.3847 C   0  0  0  0  0  0
   15.7883  -10.6250   -7.0996 C   0  0  0  0  0  0
   16.5906  -11.7320   -6.8655 C   0  0  0  0  0  0
   16.9334  -12.5746   -7.8988 C   0  0  0  0  0  0
   16.4997  -12.3010   -9.1741 C   0  0  0  0  0  0
   13.3558   -7.5220   -9.5791 N   0  0  0  0  0  0
   14.5339   -9.1964   -8.5582 N   0  0  0  0  0  0
   13.9503   -9.3601  -10.7749 O   0  0  0  0  0  0
   13.0336   -5.8579  -12.8647 O   0  0  0  0  0  0
  2 10  2  0  0  0
  2  6  1  0  0  0
  3  4  1  0  0  0
  3  1  1  0  0  0
  4 11  1  0  0  0
  5 11  1  0  0  0
  5 12  1  0  0  0
  6  7  2  0  0  0
  7  8  1  0  0  0
  9  8  2  0  0  0
 10  9  1  0  0  0
 12  6  1  0  0  0
 13  5  2  0  0  0
 14  3  1  0  0  0
M  END
>  <CHROM.1>
-64.00154263,-68.47599637,1.36226425,14.71641129,-9.02843013,-9.66372790
2.78355497,1.13510947,-1.76750855

>  <Name>
ligand.pdb

>  <RI>
2.6601e+07

>  <Rbt.Current_Directory>
/home/v/Downloads/rDock_2013.1_src/bin

>  <Rbt.Executable>
rbdock ($Id: //depot/dev/client3/rdock/2013.1/src/exe/rbdock.cxx#4 $)

>  <Rbt.Library>
libRbt.so (2013.1, Build901 2013/11/27)

>  <Rbt.Parameter_File>
/home/v/Downloads/rDock_2013.1_src/data/scripts/dock.prm

>  <Rbt.Receptor>
/home/v/Desktop/receptorr.prm

>  <SCORE>
7.77151

>  <SCORE.INTER>
8.4

>  <SCORE.INTER.CONST>
1

>  <SCORE.INTER.POLAR>
0

>  <SCORE.INTER.REPUL>
0

>  <SCORE.INTER.ROT>
3

>  <SCORE.INTER.VDW>
0

>  <SCORE.INTER.norm>
0.6

>  <SCORE.INTRA>
-0.628495

>  <SCORE.INTRA.DIHEDRAL>
-1.50702

>  <SCORE.INTRA.DIHEDRAL.0>
1.6411

>  <SCORE.INTRA.POLAR>
0

>  <SCORE.INTRA.POLAR.0>
0

>  <SCORE.INTRA.REPUL>
0

>  <SCORE.INTRA.REPUL.0>
0

>  <SCORE.INTRA.VDW>
0.125015

>  <SCORE.INTRA.VDW.0>
-0.639572

>  <SCORE.INTRA.norm>
-0.0448925

>  <SCORE.RESTR>
0

>  <SCORE.RESTR.CAVITY>
0

>  <SCORE.RESTR.norm>
0

>  <SCORE.SYSTEM>
0

>  <SCORE.SYSTEM.CONST>
0

>  <SCORE.SYSTEM.DIHEDRAL>
0

>  <SCORE.SYSTEM.norm>
0

>  <SCORE.heavy>
14

>  <SCORE.norm>
0.555108

$$$$
ligand.pdb
  rDOCK(R)          3D
libRbt.so/2013.1/901 2013/11/27
 14 14  0  0  0  0  0  0  0  0999 V2000
   12.9608   -5.5961  -10.3729 C   0  0  0  0  0  0
   17.2976  -10.0438  -10.5944 C   0  0  0  0  0  0
   12.5366   -6.9235  -10.9802 C   0  0  0  0  0  0
   12.3098   -8.0145   -9.9343 C   0  0  0  0  0  0
   14.5657   -8.9813   -9.8008 C   0  0  0  0  0  0
   16.9320   -9.6656   -9.3079 C   0  0  0  0  0  0
   17.8573   -9.7813   -8.2804 C   0  0  0  0  0  0
   19.1343  -10.2551   -8.5422 C   0  0  0  0  0  0
   19.4863  -10.6414   -9.8158 C   0  0  0  0  0  0
   18.5741  -10.5310  -10.8382 C   0  0  0  0  0  0
   13.5247   -8.3508   -9.2119 N   0  0  0  0  0  0
   15.6463   -9.1737   -8.9761 N   0  0  0  0  0  0
   14.5356   -9.3587  -10.9794 O   0  0  0  0  0  0
   11.3436   -6.7538  -11.7345 O   0  0  0  0  0  0
  2 10  2  0  0  0
  2  6  1  0  0  0
  3  4  1  0  0  0
  3  1  1  0  0  0
  4 11  1  0  0  0
  5 11  1  0  0  0
  5 12  1  0  0  0
  6  7  2  0  0  0
  7  8  1  0  0  0
  9  8  2  0  0  0
 10  9  1  0  0  0
 12  6  1  0  0  0
 13  5  2  0  0  0
 14  3  1  0  0  0
M  END
>  <CHROM.1>
-63.53662136,-68.70530570,0.01708895,15.34439480,-8.79225016,-9.99828241
3.05787440,0.51093604,-1.76583015

>  <Name>
ligand.pdb

>  <RI>
2.6601e+07

>  <Rbt.Current_Directory>
/home/v/Downloads/rDock_2013.1_src/bin

>  <Rbt.Executable>
rbdock ($Id: //depot/dev/client3/rdock/2013.1/src/exe/rbdock.cxx#4 $)

>  <Rbt.Library>
libRbt.so (2013.1, Build901 2013/11/27)

>  <Rbt.Parameter_File>
/home/v/Downloads/rDock_2013.1_src/data/scripts/dock.prm

>  <Rbt.Receptor>
/home/v/Desktop/receptorr.prm

>  <SCORE>
7.77151

>  <SCORE.INTER>
8.4

>  <SCORE.INTER.CONST>
1

>  <SCORE.INTER.POLAR>
0

>  <SCORE.INTER.REPUL>
0

>  <SCORE.INTER.ROT>
3

>  <SCORE.INTER.VDW>
0

>  <SCORE.INTER.norm>
0.6

>  <SCORE.INTRA>
-0.628489

>  <SCORE.INTRA.DIHEDRAL>
-1.52135

>  <SCORE.INTRA.DIHEDRAL.0>
1.6411

>  <SCORE.INTRA.POLAR>
0

>  <SCORE.INTRA.POLAR.0>
0

>  <SCORE.INTRA.REPUL>
0

>  <SCORE.INTRA.REPUL.0>
0

>  <SCORE.INTRA.VDW>
0.132185

>  <SCORE.INTRA.VDW.0>
-0.639572

>  <SCORE.INTRA.norm>
-0.0448921

>  <SCORE.RESTR>
0

>  <SCORE.RESTR.CAVITY>
0

>  <SCORE.RESTR.norm>
0

>  <SCORE.SYSTEM>
0

>  <SCORE.SYSTEM.CONST>
0

>  <SCORE.SYSTEM.DIHEDRAL>
0

>  <SCORE.SYSTEM.norm>
0

>  <SCORE.heavy>
14

>  <SCORE.norm>
0.555108

$$$$
ligand.pdb
  rDOCK(R)          3D
libRbt.so/2013.1/901 2013/11/27
 14 14  0  0  0  0  0  0  0  0999 V2000
   13.6643   -5.2944  -12.1771 C   0  0  0  0  0  0
   17.0468  -10.2989  -10.6621 C   0  0  0  0  0  0
   13.0994   -6.6496  -12.5708 C   0  0  0  0  0  0
   12.5080   -7.4173  -11.3891 C   0  0  0  0  0  0
   14.4856   -8.6674  -10.6353 C   0  0  0  0  0  0
   16.5706   -9.5800   -9.5719 C   0  0  0  0  0  0
   17.2885   -9.5973   -8.3847 C   0  0  0  0  0  0
   18.4736  -10.3127   -8.2970 C   0  0  0  0  0  0
   18.9331  -11.0341   -9.3756 C   0  0  0  0  0  0
   18.2260  -11.0228  -10.5544 C   0  0  0  0  0  0
   13.5101   -7.7626  -10.3953 N   0  0  0  0  0  0
   15.3699   -8.8297   -9.5978 N   0  0  0  0  0  0
   14.5621   -9.2985  -11.6975 O   0  0  0  0  0  0
   12.0947   -6.4875  -13.5635 O   0  0  0  0  0  0
  2 10  2  0  0  0
  2  6  1  0  0  0
  3  4  1  0  0  0
  3  1  1  0  0  0
  4 11  1  0  0  0
  5 11  1  0  0  0
  5 12  1  0  0  0
  6  7  2  0  0  0
  7  8  1  0  0  0
  9  8  2  0  0  0
 10  9  1  0  0  0
 12  6  1  0  0  0
 13  5  2  0  0  0
 14  3  1  0  0  0
M  END
>  <CHROM.1>
-64.14822080,-68.63673403,0.01708895,15.30644299,-8.65436930,-10.71523186
2.90799108,0.72888119,-1.90071361

>  <Name>
ligand.pdb

>  <RI>
2.6601e+07

>  <Rbt.Current_Directory>
/home/v/Downloads/rDock_2013.1_src/bin

>  <Rbt.Executable>
rbdock ($Id: //depot/dev/client3/rdock/2013.1/src/exe/rbdock.cxx#4 $)

>  <Rbt.Library>
libRbt.so (2013.1, Build901 2013/11/27)

>  <Rbt.Parameter_File>
/home/v/Downloads/rDock_2013.1_src/data/scripts/dock.prm

>  <Rbt.Receptor>
/home/v/Desktop/receptorr.prm

>  <SCORE>
7.77172

>  <SCORE.INTER>
8.4

>  <SCORE.INTER.CONST>
1

>  <SCORE.INTER.POLAR>
0

>  <SCORE.INTER.REPUL>
0

>  <SCORE.INTER.ROT>
3

>  <SCORE.INTER.VDW>
0

>  <SCORE.INTER.norm>
0.6

>  <SCORE.INTRA>
-0.628282

>  <SCORE.INTRA.DIHEDRAL>
-1.50601

>  <SCORE.INTRA.DIHEDRAL.0>
1.6411

>  <SCORE.INTRA.POLAR>
0

>  <SCORE.INTRA.POLAR.0>
0

>  <SCORE.INTRA.REPUL>
0

>  <SCORE.INTRA.REPUL.0>
0

>  <SCORE.INTRA.VDW>
0.124721

>  <SCORE.INTRA.VDW.0>
-0.639572

>  <SCORE.INTRA.norm>
-0.0448773

>  <SCORE.RESTR>
0

>  <SCORE.RESTR.CAVITY>
0

>  <SCORE.RESTR.norm>
0

>  <SCORE.SYSTEM>
0

>  <SCORE.SYSTEM.CONST>
0

>  <SCORE.SYSTEM.DIHEDRAL>
0

>  <SCORE.SYSTEM.norm>
0

>  <SCORE.heavy>
14

>  <SCORE.norm>
0.555123

$$$$
