MODEL 1
REMARK VINA RESULT:      -1.8      0.000      0.000
REMARK  The pdbqt file for using water as a ligand
ROOT
ATOM      1  OW  HOH   231      15.393  -5.018 -20.761  1.00  0.00    -0.411 OA
ATOM      2  HW1 HOH   231      16.324  -5.009 -21.124  1.00  0.00     0.205 HD
ATOM      3  HW2 HOH   231      15.360  -5.585 -19.939  1.00  0.00     0.205 HD
ENDROOT
TORSDOF 0
BEGIN_RES UNL 0
REMARK  5 active torsions:
REMARK  status: ('A' for Active; 'I' for Inactive)
REMARK    1  A    between atoms: C2_3  and  C3_4 
REMARK    2  A    between atoms: C3_4  and  N1_11 
REMARK    3  A    between atoms: C4_5  and  N1_11 
REMARK    4  A    between atoms: C4_5  and  N2_12 
REMARK    5  A    between atoms: N2_12  and  C5_6 
ROOT
ATOM      2  C2  LIG d   1      13.026  -6.878 -11.554  0.00  0.00     0.177 C
ATOM      3  O2  LIG d   1      12.266  -6.232 -12.567  0.00  0.00    -0.221 OA
ENDROOT
BRANCH   2   4
ATOM      4  C3  LIG d   1      12.387  -8.231 -11.243  0.00  0.00     0.163 C 
BRANCH   4   5
ATOM      5  N1  LIG d   1      13.159  -9.000 -10.282  0.00  0.00    -0.214 NA
ATOM      6  C4  LIG d   1      14.349  -9.561 -10.592  0.00  0.00     0.364 C 
ATOM      7  O1  LIG d   1      14.839  -9.499 -11.728  0.00  0.00    -0.243 OA
ATOM      8  N2  LIG d   1      14.956 -10.209  -9.545  0.00  0.00    -0.191 NA
BRANCH   8   9
ATOM      9  C5  LIG d   1      16.254 -10.772  -9.490  0.00  0.00     0.086 A 
ATOM     10  C10 LIG d   1      16.886 -11.345 -10.587  0.00  0.00     0.019 A 
ATOM     11  C9  LIG d   1      18.155 -11.890 -10.450  0.00  0.00     0.002 A 
ATOM     12  C8  LIG d   1      18.798 -11.867  -9.235  0.00  0.00     0.000 A 
ATOM     13  C7  LIG d   1      18.182 -11.289  -8.148  0.00  0.00     0.002 A 
ATOM     14  C6  LIG d   1      16.908 -10.754  -8.266  0.00  0.00     0.019 A 
ENDBRANCH   8   9
ENDBRANCH   4   5
ENDBRANCH   2   4
END_RES UNL 0
ENDMDL
MODEL 2
REMARK VINA RESULT:      -1.6      0.102      1.441
REMARK  The pdbqt file for using water as a ligand
ROOT
ATOM      1  OW  HOH   231      15.483  -5.047 -20.812  1.00  0.00    -0.411 OA
ATOM      2  HW1 HOH   231      14.801  -4.322 -20.724  1.00  0.00     0.205 HD
ATOM      3  HW2 HOH   231      16.245  -4.722 -21.370  1.00  0.00     0.205 HD
ENDROOT
TORSDOF 0
BEGIN_RES UNL 0
REMARK  5 active torsions:
REMARK  status: ('A' for Active; 'I' for Inactive)
REMARK    1  A    between atoms: C2_3  and  C3_4 
REMARK    2  A    between atoms: C3_4  and  N1_11 
REMARK    3  A    between atoms: C4_5  and  N1_11 
REMARK    4  A    between atoms: C4_5  and  N2_12 
REMARK    5  A    between atoms: N2_12  and  C5_6 
ROOT
ATOM      2  C2  LIG d   1      13.026  -6.878 -11.554  0.00  0.00     0.177 C
ATOM      3  O2  LIG d   1      12.266  -6.232 -12.567  0.00  0.00    -0.221 OA
ENDROOT
BRANCH   2   4
ATOM      4  C3  LIG d   1      12.387  -8.231 -11.243  0.00  0.00     0.163 C 
BRANCH   4   5
ATOM      5  N1  LIG d   1      13.142  -8.987 -10.259  0.00  0.00    -0.214 NA
ATOM      6  C4  LIG d   1      14.339  -9.550 -10.541  0.00  0.00     0.364 C 
ATOM      7  O1  LIG d   1      14.848  -9.502 -11.668  0.00  0.00    -0.243 OA
ATOM      8  N2  LIG d   1      14.927 -10.184  -9.475  0.00  0.00    -0.191 NA
BRANCH   8   9
ATOM      9  C5  LIG d   1      16.224 -10.745  -9.389  0.00  0.00     0.086 A 
ATOM     10  C10 LIG d   1      16.972 -10.768  -8.217  0.00  0.00     0.019 A 
ATOM     11  C9  LIG d   1      18.244 -11.323  -8.216  0.00  0.00     0.002 A 
ATOM     12  C8  LIG d   1      18.774 -11.856  -9.367  0.00  0.00     0.000 A 
ATOM     13  C7  LIG d   1      18.033 -11.849 -10.527  0.00  0.00     0.002 A 
ATOM     14  C6  LIG d   1      16.766 -11.283 -10.548  0.00  0.00     0.019 A 
ENDBRANCH   8   9
ENDBRANCH   4   5
ENDBRANCH   2   4
END_RES UNL 0
ENDMDL
MODEL 3
REMARK VINA RESULT:      -1.2      3.495      5.035
REMARK  The pdbqt file for using water as a ligand
ROOT
ATOM      1  OW  HOH   231      10.589  -0.817  -5.331  1.00  0.00    -0.411 OA
ATOM      2  HW1 HOH   231      10.594   0.128  -5.655  1.00  0.00     0.205 HD
ATOM      3  HW2 HOH   231      11.306  -1.333  -5.798  1.00  0.00     0.205 HD
ENDROOT
TORSDOF 0
BEGIN_RES UNL 0
REMARK  5 active torsions:
REMARK  status: ('A' for Active; 'I' for Inactive)
REMARK    1  A    between atoms: C2_3  and  C3_4 
REMARK    2  A    between atoms: C3_4  and  N1_11 
REMARK    3  A    between atoms: C4_5  and  N1_11 
REMARK    4  A    between atoms: C4_5  and  N2_12 
REMARK    5  A    between atoms: N2_12  and  C5_6 
ROOT
ATOM      2  C2  LIG d   1      13.026  -6.878 -11.554  0.00  0.00     0.177 C
ATOM      3  O2  LIG d   1      12.266  -6.232 -12.567  0.00  0.00    -0.221 OA
ENDROOT
BRANCH   2   4
ATOM      4  C3  LIG d   1      12.387  -8.231 -11.243  0.00  0.00     0.163 C 
BRANCH   4   5
ATOM      5  N1  LIG d   1      13.158  -9.000 -10.281  0.00  0.00    -0.214 NA
ATOM      6  C4  LIG d   1      14.350  -9.559 -10.590  0.00  0.00     0.364 C 
ATOM      7  O1  LIG d   1      14.841  -9.496 -11.725  0.00  0.00    -0.243 OA
ATOM      8  N2  LIG d   1      14.956 -10.207  -9.543  0.00  0.00    -0.191 NA
BRANCH   8   9
ATOM      9  C5  LIG d   1      16.254 -10.769  -9.486  0.00  0.00     0.086 A 
ATOM     10  C10 LIG d   1      16.888 -11.342 -10.582  0.00  0.00     0.019 A 
ATOM     11  C9  LIG d   1      18.157 -11.886 -10.444  0.00  0.00     0.002 A 
ATOM     12  C8  LIG d   1      18.799 -11.862  -9.228  0.00  0.00     0.000 A 
ATOM     13  C7  LIG d   1      18.181 -11.283  -8.142  0.00  0.00     0.002 A 
ATOM     14  C6  LIG d   1      16.907 -10.750  -8.262  0.00  0.00     0.019 A 
ENDBRANCH   8   9
ENDBRANCH   4   5
ENDBRANCH   2   4
END_RES UNL 0
ENDMDL
MODEL 4
REMARK VINA RESULT:      -1.2      2.191      2.191
REMARK  The pdbqt file for using water as a ligand
ROOT
ATOM      1  OW  HOH   231      11.485  -4.016 -14.718  1.00  0.00    -0.411 OA
ATOM      2  HW1 HOH   231      10.703  -3.395 -14.752  1.00  0.00     0.205 HD
ATOM      3  HW2 HOH   231      12.307  -3.503 -14.473  1.00  0.00     0.205 HD
ENDROOT
TORSDOF 0
BEGIN_RES UNL 0
REMARK  5 active torsions:
REMARK  status: ('A' for Active; 'I' for Inactive)
REMARK    1  A    between atoms: C2_3  and  C3_4 
REMARK    2  A    between atoms: C3_4  and  N1_11 
REMARK    3  A    between atoms: C4_5  and  N1_11 
REMARK    4  A    between atoms: C4_5  and  N2_12 
REMARK    5  A    between atoms: N2_12  and  C5_6 
ROOT
ATOM      2  C2  LIG d   1      13.026  -6.878 -11.554  0.00  0.00     0.177 C
ATOM      3  O2  LIG d   1      12.266  -6.232 -12.567  0.00  0.00    -0.221 OA
ENDROOT
BRANCH   2   4
ATOM      4  C3  LIG d   1      12.387  -8.231 -11.243  0.00  0.00     0.163 C 
BRANCH   4   5
ATOM      5  N1  LIG d   1      13.157  -8.999 -10.280  0.00  0.00    -0.214 NA
ATOM      6  C4  LIG d   1      14.349  -9.559 -10.588  0.00  0.00     0.364 C 
ATOM      7  O1  LIG d   1      14.841  -9.497 -11.722  0.00  0.00    -0.243 OA
ATOM      8  N2  LIG d   1      14.954 -10.206  -9.539  0.00  0.00    -0.191 NA
BRANCH   8   9
ATOM      9  C5  LIG d   1      16.252 -10.768  -9.481  0.00  0.00     0.086 A 
ATOM     10  C10 LIG d   1      16.888 -11.339 -10.577  0.00  0.00     0.019 A 
ATOM     11  C9  LIG d   1      18.157 -11.884 -10.437  0.00  0.00     0.002 A 
ATOM     12  C8  LIG d   1      18.796 -11.861  -9.220  0.00  0.00     0.000 A 
ATOM     13  C7  LIG d   1      18.177 -11.285  -8.134  0.00  0.00     0.002 A 
ATOM     14  C6  LIG d   1      16.902 -10.751  -8.255  0.00  0.00     0.019 A 
ENDBRANCH   8   9
ENDBRANCH   4   5
ENDBRANCH   2   4
END_RES UNL 0
ENDMDL
MODEL 5
REMARK VINA RESULT:      -1.1      3.177      3.588
REMARK  The pdbqt file for using water as a ligand
ROOT
ATOM      1  OW  HOH   231      12.152 -16.367 -19.251  1.00  0.00    -0.411 OA
ATOM      2  HW1 HOH   231      13.084 -16.358 -19.614  1.00  0.00     0.205 HD
ATOM      3  HW2 HOH   231      12.120 -16.935 -18.430  1.00  0.00     0.205 HD
ENDROOT
TORSDOF 0
BEGIN_RES UNL 0
REMARK  5 active torsions:
REMARK  status: ('A' for Active; 'I' for Inactive)
REMARK    1  A    between atoms: C2_3  and  C3_4 
REMARK    2  A    between atoms: C3_4  and  N1_11 
REMARK    3  A    between atoms: C4_5  and  N1_11 
REMARK    4  A    between atoms: C4_5  and  N2_12 
REMARK    5  A    between atoms: N2_12  and  C5_6 
ROOT
ATOM      2  C2  LIG d   1      13.026  -6.878 -11.554  0.00  0.00     0.177 C
ATOM      3  O2  LIG d   1      12.266  -6.232 -12.567  0.00  0.00    -0.221 OA
ENDROOT
BRANCH   2   4
ATOM      4  C3  LIG d   1      12.387  -8.231 -11.243  0.00  0.00     0.163 C 
BRANCH   4   5
ATOM      5  N1  LIG d   1      13.158  -9.000 -10.282  0.00  0.00    -0.214 NA
ATOM      6  C4  LIG d   1      14.349  -9.560 -10.591  0.00  0.00     0.364 C 
ATOM      7  O1  LIG d   1      14.839  -9.498 -11.727  0.00  0.00    -0.243 OA
ATOM      8  N2  LIG d   1      14.956 -10.208  -9.544  0.00  0.00    -0.191 NA
BRANCH   8   9
ATOM      9  C5  LIG d   1      16.254 -10.771  -9.488  0.00  0.00     0.086 A 
ATOM     10  C10 LIG d   1      16.890 -11.337 -10.587  0.00  0.00     0.019 A 
ATOM     11  C9  LIG d   1      18.159 -11.882 -10.449  0.00  0.00     0.002 A 
ATOM     12  C8  LIG d   1      18.797 -11.866  -9.232  0.00  0.00     0.000 A 
ATOM     13  C7  LIG d   1      18.178 -11.294  -8.144  0.00  0.00     0.002 A 
ATOM     14  C6  LIG d   1      16.904 -10.760  -8.262  0.00  0.00     0.019 A 
ENDBRANCH   8   9
ENDBRANCH   4   5
ENDBRANCH   2   4
END_RES UNL 0
ENDMDL
MODEL 6
REMARK VINA RESULT:      -1.0      3.194      4.156
REMARK  The pdbqt file for using water as a ligand
ROOT
ATOM      1  OW  HOH   231       4.494  -9.997 -13.948  1.00  0.00    -0.411 OA
ATOM      2  HW1 HOH   231       3.904  -9.212 -14.129  1.00  0.00     0.205 HD
ATOM      3  HW2 HOH   231       5.400  -9.829 -14.335  1.00  0.00     0.205 HD
ENDROOT
TORSDOF 0
BEGIN_RES UNL 0
REMARK  5 active torsions:
REMARK  status: ('A' for Active; 'I' for Inactive)
REMARK    1  A    between atoms: C2_3  and  C3_4 
REMARK    2  A    between atoms: C3_4  and  N1_11 
REMARK    3  A    between atoms: C4_5  and  N1_11 
REMARK    4  A    between atoms: C4_5  and  N2_12 
REMARK    5  A    between atoms: N2_12  and  C5_6 
ROOT
ATOM      2  C2  LIG d   1      13.026  -6.878 -11.554  0.00  0.00     0.177 C
ATOM      3  O2  LIG d   1      12.266  -6.232 -12.567  0.00  0.00    -0.221 OA
ENDROOT
BRANCH   2   4
ATOM      4  C3  LIG d   1      12.387  -8.231 -11.243  0.00  0.00     0.163 C 
BRANCH   4   5
ATOM      5  N1  LIG d   1      13.158  -9.000 -10.281  0.00  0.00    -0.214 NA
ATOM      6  C4  LIG d   1      14.349  -9.560 -10.591  0.00  0.00     0.364 C 
ATOM      7  O1  LIG d   1      14.840  -9.498 -11.726  0.00  0.00    -0.243 OA
ATOM      8  N2  LIG d   1      14.955 -10.208  -9.543  0.00  0.00    -0.191 NA
BRANCH   8   9
ATOM      9  C5  LIG d   1      16.254 -10.770  -9.487  0.00  0.00     0.086 A 
ATOM     10  C10 LIG d   1      16.884 -11.349 -10.582  0.00  0.00     0.019 A 
ATOM     11  C9  LIG d   1      18.154 -11.893 -10.444  0.00  0.00     0.002 A 
ATOM     12  C8  LIG d   1      18.798 -11.863  -9.230  0.00  0.00     0.000 A 
ATOM     13  C7  LIG d   1      18.184 -11.279  -8.145  0.00  0.00     0.002 A 
ATOM     14  C6  LIG d   1      16.909 -10.745  -8.264  0.00  0.00     0.019 A 
ENDBRANCH   8   9
ENDBRANCH   4   5
ENDBRANCH   2   4
END_RES UNL 0
ENDMDL
MODEL 7
REMARK VINA RESULT:      -0.9      4.934      6.449
REMARK  The pdbqt file for using water as a ligand
ROOT
ATOM      1  OW  HOH   231      22.591   0.559  -1.407  1.00  0.00    -0.411 OA
ATOM      2  HW1 HOH   231      22.595   1.504  -1.731  1.00  0.00     0.205 HD
ATOM      3  HW2 HOH   231      23.308   0.043  -1.874  1.00  0.00     0.205 HD
ENDROOT
TORSDOF 0
BEGIN_RES UNL 0
REMARK  5 active torsions:
REMARK  status: ('A' for Active; 'I' for Inactive)
REMARK    1  A    between atoms: C2_3  and  C3_4 
REMARK    2  A    between atoms: C3_4  and  N1_11 
REMARK    3  A    between atoms: C4_5  and  N1_11 
REMARK    4  A    between atoms: C4_5  and  N2_12 
REMARK    5  A    between atoms: N2_12  and  C5_6 
ROOT
ATOM      2  C2  LIG d   1      13.026  -6.878 -11.554  0.00  0.00     0.177 C
ATOM      3  O2  LIG d   1      12.266  -6.232 -12.567  0.00  0.00    -0.221 OA
ENDROOT
BRANCH   2   4
ATOM      4  C3  LIG d   1      12.387  -8.231 -11.243  0.00  0.00     0.163 C 
BRANCH   4   5
ATOM      5  N1  LIG d   1      13.158  -9.000 -10.281  0.00  0.00    -0.214 NA
ATOM      6  C4  LIG d   1      14.349  -9.559 -10.589  0.00  0.00     0.364 C 
ATOM      7  O1  LIG d   1      14.841  -9.497 -11.723  0.00  0.00    -0.243 OA
ATOM      8  N2  LIG d   1      14.955 -10.207  -9.541  0.00  0.00    -0.191 NA
BRANCH   8   9
ATOM      9  C5  LIG d   1      16.253 -10.769  -9.483  0.00  0.00     0.086 A 
ATOM     10  C10 LIG d   1      16.886 -11.346 -10.578  0.00  0.00     0.019 A 
ATOM     11  C9  LIG d   1      18.155 -11.890 -10.439  0.00  0.00     0.002 A 
ATOM     12  C8  LIG d   1      18.798 -11.860  -9.224  0.00  0.00     0.000 A 
ATOM     13  C7  LIG d   1      18.182 -11.277  -8.140  0.00  0.00     0.002 A 
ATOM     14  C6  LIG d   1      16.907 -10.744  -8.260  0.00  0.00     0.019 A 
ENDBRANCH   8   9
ENDBRANCH   4   5
ENDBRANCH   2   4
END_RES UNL 0
ENDMDL
MODEL 8
REMARK VINA RESULT:      -0.9      3.045      4.234
REMARK  The pdbqt file for using water as a ligand
ROOT
ATOM      1  OW  HOH   231      15.857 -16.331 -12.453  1.00  0.00    -0.411 OA
ATOM      2  HW1 HOH   231      15.808 -15.414 -12.846  1.00  0.00     0.205 HD
ATOM      3  HW2 HOH   231      16.242 -16.962 -13.127  1.00  0.00     0.205 HD
ENDROOT
TORSDOF 0
BEGIN_RES UNL 0
REMARK  5 active torsions:
REMARK  status: ('A' for Active; 'I' for Inactive)
REMARK    1  A    between atoms: C2_3  and  C3_4 
REMARK    2  A    between atoms: C3_4  and  N1_11 
REMARK    3  A    between atoms: C4_5  and  N1_11 
REMARK    4  A    between atoms: C4_5  and  N2_12 
REMARK    5  A    between atoms: N2_12  and  C5_6 
ROOT
ATOM      2  C2  LIG d   1      13.026  -6.878 -11.554  0.00  0.00     0.177 C
ATOM      3  O2  LIG d   1      12.266  -6.232 -12.567  0.00  0.00    -0.221 OA
ENDROOT
BRANCH   2   4
ATOM      4  C3  LIG d   1      12.387  -8.231 -11.243  0.00  0.00     0.163 C 
BRANCH   4   5
ATOM      5  N1  LIG d   1      13.159  -9.001 -10.282  0.00  0.00    -0.214 NA
ATOM      6  C4  LIG d   1      14.350  -9.560 -10.593  0.00  0.00     0.364 C 
ATOM      7  O1  LIG d   1      14.840  -9.497 -11.728  0.00  0.00    -0.243 OA
ATOM      8  N2  LIG d   1      14.957 -10.208  -9.546  0.00  0.00    -0.191 NA
BRANCH   8   9
ATOM      9  C5  LIG d   1      16.255 -10.771  -9.490  0.00  0.00     0.086 A 
ATOM     10  C10 LIG d   1      16.890 -11.338 -10.589  0.00  0.00     0.019 A 
ATOM     11  C9  LIG d   1      18.159 -11.883 -10.452  0.00  0.00     0.002 A 
ATOM     12  C8  LIG d   1      18.799 -11.864  -9.235  0.00  0.00     0.000 A 
ATOM     13  C7  LIG d   1      18.181 -11.291  -8.147  0.00  0.00     0.002 A 
ATOM     14  C6  LIG d   1      16.906 -10.757  -8.265  0.00  0.00     0.019 A 
ENDBRANCH   8   9
ENDBRANCH   4   5
ENDBRANCH   2   4
END_RES UNL 0
ENDMDL
MODEL 9
REMARK VINA RESULT:      -0.6      3.818      4.836
REMARK  The pdbqt file for using water as a ligand
ROOT
ATOM      1  OW  HOH   231      25.373 -15.932 -14.556  1.00  0.00    -0.411 OA
ATOM      2  HW1 HOH   231      25.089 -15.947 -15.515  1.00  0.00     0.205 HD
ATOM      3  HW2 HOH   231      24.567 -16.001 -13.969  1.00  0.00     0.205 HD
ENDROOT
TORSDOF 0
BEGIN_RES UNL 0
REMARK  5 active torsions:
REMARK  status: ('A' for Active; 'I' for Inactive)
REMARK    1  A    between atoms: C2_3  and  C3_4 
REMARK    2  A    between atoms: C3_4  and  N1_11 
REMARK    3  A    between atoms: C4_5  and  N1_11 
REMARK    4  A    between atoms: C4_5  and  N2_12 
REMARK    5  A    between atoms: N2_12  and  C5_6 
ROOT
ATOM      2  C2  LIG d   1      13.026  -6.878 -11.554  0.00  0.00     0.177 C
ATOM      3  O2  LIG d   1      12.266  -6.232 -12.567  0.00  0.00    -0.221 OA
ENDROOT
BRANCH   2   4
ATOM      4  C3  LIG d   1      12.387  -8.231 -11.243  0.00  0.00     0.163 C 
BRANCH   4   5
ATOM      5  N1  LIG d   1      13.158  -9.000 -10.281  0.00  0.00    -0.214 NA
ATOM      6  C4  LIG d   1      14.349  -9.559 -10.589  0.00  0.00     0.364 C 
ATOM      7  O1  LIG d   1      14.840  -9.498 -11.724  0.00  0.00    -0.243 OA
ATOM      8  N2  LIG d   1      14.954 -10.207  -9.541  0.00  0.00    -0.191 NA
BRANCH   8   9
ATOM      9  C5  LIG d   1      16.253 -10.769  -9.484  0.00  0.00     0.086 A 
ATOM     10  C10 LIG d   1      16.885 -11.347 -10.578  0.00  0.00     0.019 A 
ATOM     11  C9  LIG d   1      18.154 -11.891 -10.440  0.00  0.00     0.002 A 
ATOM     12  C8  LIG d   1      18.797 -11.862  -9.225  0.00  0.00     0.000 A 
ATOM     13  C7  LIG d   1      18.181 -11.279  -8.140  0.00  0.00     0.002 A 
ATOM     14  C6  LIG d   1      16.907 -10.745  -8.260  0.00  0.00     0.019 A 
ENDBRANCH   8   9
ENDBRANCH   4   5
ENDBRANCH   2   4
END_RES UNL 0
ENDMDL
