ligand.pdb
  rDOCK(R)          3D
libRbt.so/2013.1/901 2013/11/27
 14 14  0  0  0  0  0  0  0  0999 V2000
   15.2073   -8.8596   -3.7623 C   0  0  0  0  0  0
   19.1863   -8.4068   -9.7895 C   0  0  0  0  0  0
   15.9245   -9.4422   -4.9694 C   0  0  0  0  0  0
   15.1461   -9.2620   -6.2721 C   0  0  0  0  0  0
   16.7874   -9.1905   -8.1005 C   0  0  0  0  0  0
   18.4663   -9.5878   -9.9264 C   0  0  0  0  0  0
   18.8331  -10.4931  -10.9119 C   0  0  0  0  0  0
   19.9149  -10.2246  -11.7375 C   0  0  0  0  0  0
   20.6156   -9.0469  -11.6064 C   0  0  0  0  0  0
   20.2567   -8.1448  -10.6333 C   0  0  0  0  0  0
   15.8290   -9.8502   -7.4117 N   0  0  0  0  0  0
   17.3544   -9.9208   -9.1152 N   0  0  0  0  0  0
   17.1127   -8.0249   -7.8392 O   0  0  0  0  0  0
   17.2048   -8.8406   -5.1112 O   0  0  0  0  0  0
  2 10  2  0  0  0
  2  6  1  0  0  0
  3  4  1  0  0  0
  3  1  1  0  0  0
  4 11  1  0  0  0
  5 11  1  0  0  0
  5 12  1  0  0  0
  6  7  2  0  0  0
  7  8  1  0  0  0
  9  8  2  0  0  0
 10  9  1  0  0  0
 12  6  1  0  0  0
 13  5  2  0  0  0
 14  3  1  0  0  0
M  END
>  <CHROM.1>
-178.68927904,-84.60738062,0.57673942,17.63535369,-9.21160547,-8.24384131
-2.31868766,-0.60752969,-2.10563432

>  <Name>
ligand.pdb

>  <RI>
1.15971e+07

>  <Rbt.Current_Directory>
/home/v/Downloads/rDock_2013.1_src/bin

>  <Rbt.Executable>
rbdock ($Id: //depot/dev/client3/rdock/2013.1/src/exe/rbdock.cxx#4 $)

>  <Rbt.Library>
libRbt.so (2013.1, Build901 2013/11/27)

>  <Rbt.Parameter_File>
/home/v/Downloads/rDock_2013.1_src/data/scripts/dock.prm

>  <Rbt.Receptor>
/home/v/Desktop/r.prm

>  <SCORE>
7.5872

>  <SCORE.INTER>
8.4

>  <SCORE.INTER.CONST>
1

>  <SCORE.INTER.POLAR>
0

>  <SCORE.INTER.REPUL>
0

>  <SCORE.INTER.ROT>
3

>  <SCORE.INTER.VDW>
0

>  <SCORE.INTER.norm>
0.6

>  <SCORE.INTRA>
-0.812797

>  <SCORE.INTRA.DIHEDRAL>
-1.18305

>  <SCORE.INTRA.DIHEDRAL.0>
1.6411

>  <SCORE.INTRA.POLAR>
0

>  <SCORE.INTRA.POLAR.0>
0

>  <SCORE.INTRA.REPUL>
0

>  <SCORE.INTRA.REPUL.0>
0

>  <SCORE.INTRA.VDW>
-0.221274

>  <SCORE.INTRA.VDW.0>
-0.639572

>  <SCORE.INTRA.norm>
-0.058057

>  <SCORE.RESTR>
0

>  <SCORE.RESTR.CAVITY>
0

>  <SCORE.RESTR.norm>
0

>  <SCORE.SYSTEM>
0

>  <SCORE.SYSTEM.CONST>
0

>  <SCORE.SYSTEM.DIHEDRAL>
0

>  <SCORE.SYSTEM.norm>
0

>  <SCORE.heavy>
14

>  <SCORE.norm>
0.541943

$$$$
ligand.pdb
  rDOCK(R)          3D
libRbt.so/2013.1/901 2013/11/27
 14 14  0  0  0  0  0  0  0  0999 V2000
   14.3078   -5.9966   -7.4146 C   0  0  0  0  0  0
   13.5656  -12.8993   -9.3948 C   0  0  0  0  0  0
   14.6486   -7.4761   -7.3398 C   0  0  0  0  0  0
   13.6265   -8.2858   -6.5428 C   0  0  0  0  0  0
   13.6555  -10.5716   -7.4463 C   0  0  0  0  0  0
   14.0700  -12.9612   -8.1010 C   0  0  0  0  0  0
   14.5560  -14.1693   -7.6218 C   0  0  0  0  0  0
   14.5499  -15.2943   -8.4330 C   0  0  0  0  0  0
   14.0363  -15.2302   -9.7087 C   0  0  0  0  0  0
   13.5517  -14.0371  -10.1893 C   0  0  0  0  0  0
   13.9729   -9.6948   -6.4673 N   0  0  0  0  0  0
   14.1054  -11.8495   -7.2246 N   0  0  0  0  0  0
   13.0062  -10.2447   -8.4484 O   0  0  0  0  0  0
   14.7456   -8.0194   -8.6499 O   0  0  0  0  0  0
  2 10  2  0  0  0
  2  6  1  0  0  0
  3  4  1  0  0  0
  3  1  1  0  0  0
  4 11  1  0  0  0
  5 11  1  0  0  0
  5 12  1  0  0  0
  6  7  2  0  0  0
  7  8  1  0  0  0
  9  8  2  0  0  0
 10  9  1  0  0  0
 12  6  1  0  0  0
 13  5  2  0  0  0
 14  3  1  0  0  0
M  END
>  <CHROM.1>
-179.36008689,-84.02849752,1.30734222,14.02634603,-11.05013513,-8.06060231
1.38659272,-1.46192250,0.04059533

>  <Name>
ligand.pdb

>  <RI>
1.15971e+07

>  <Rbt.Current_Directory>
/home/v/Downloads/rDock_2013.1_src/bin

>  <Rbt.Executable>
rbdock ($Id: //depot/dev/client3/rdock/2013.1/src/exe/rbdock.cxx#4 $)

>  <Rbt.Library>
libRbt.so (2013.1, Build901 2013/11/27)

>  <Rbt.Parameter_File>
/home/v/Downloads/rDock_2013.1_src/data/scripts/dock.prm

>  <Rbt.Receptor>
/home/v/Desktop/r.prm

>  <SCORE>
7.58784

>  <SCORE.INTER>
8.4

>  <SCORE.INTER.CONST>
1

>  <SCORE.INTER.POLAR>
0

>  <SCORE.INTER.REPUL>
0

>  <SCORE.INTER.ROT>
3

>  <SCORE.INTER.VDW>
0

>  <SCORE.INTER.norm>
0.6

>  <SCORE.INTRA>
-0.812165

>  <SCORE.INTRA.DIHEDRAL>
-1.20209

>  <SCORE.INTRA.DIHEDRAL.0>
1.6411

>  <SCORE.INTRA.POLAR>
0

>  <SCORE.INTRA.POLAR.0>
0

>  <SCORE.INTRA.REPUL>
0

>  <SCORE.INTRA.REPUL.0>
0

>  <SCORE.INTRA.VDW>
-0.211119

>  <SCORE.INTRA.VDW.0>
-0.639572

>  <SCORE.INTRA.norm>
-0.0580118

>  <SCORE.RESTR>
0

>  <SCORE.RESTR.CAVITY>
0

>  <SCORE.RESTR.norm>
0

>  <SCORE.SYSTEM>
0

>  <SCORE.SYSTEM.CONST>
0

>  <SCORE.SYSTEM.DIHEDRAL>
0

>  <SCORE.SYSTEM.norm>
0

>  <SCORE.heavy>
14

>  <SCORE.norm>
0.541988

$$$$
ligand.pdb
  rDOCK(R)          3D
libRbt.so/2013.1/901 2013/11/27
 14 14  0  0  0  0  0  0  0  0999 V2000
    9.8192   -2.1406  -12.0212 C   0  0  0  0  0  0
   15.7954   -6.1625  -12.7453 C   0  0  0  0  0  0
   10.7236   -3.3163  -11.6885 C   0  0  0  0  0  0
   10.6525   -4.4374  -12.7247 C   0  0  0  0  0  0
   12.8089   -5.6162  -12.6768 C   0  0  0  0  0  0
   14.8361   -7.0358  -12.2461 C   0  0  0  0  0  0
   15.2364   -8.2687  -11.7509 C   0  0  0  0  0  0
   16.5797   -8.6141  -11.7430 C   0  0  0  0  0  0
   17.5237   -7.7508  -12.2515 C   0  0  0  0  0  0
   17.1341   -6.5285  -12.7452 C   0  0  0  0  0  0
   11.4920   -5.5702  -12.3739 N   0  0  0  0  0  0
   13.4510   -6.7423  -12.2248 N   0  0  0  0  0  0
   13.3771   -4.7210  -13.3158 O   0  0  0  0  0  0
   12.0710   -2.8768  -11.5775 O   0  0  0  0  0  0
  2 10  2  0  0  0
  2  6  1  0  0  0
  3  4  1  0  0  0
  3  1  1  0  0  0
  4 11  1  0  0  0
  5 11  1  0  0  0
  5 12  1  0  0  0
  6  7  2  0  0  0
  7  8  1  0  0  0
  9  8  2  0  0  0
 10  9  1  0  0  0
 12  6  1  0  0  0
 13  5  2  0  0  0
 14  3  1  0  0  0
M  END
>  <CHROM.1>
-178.32757775,-84.66607927,0.78628402,13.57822550,-5.59336839,-12.29434381
-2.49409110,-0.07335238,3.06978777

>  <Name>
ligand.pdb

>  <RI>
1.15971e+07

>  <Rbt.Current_Directory>
/home/v/Downloads/rDock_2013.1_src/bin

>  <Rbt.Executable>
rbdock ($Id: //depot/dev/client3/rdock/2013.1/src/exe/rbdock.cxx#4 $)

>  <Rbt.Library>
libRbt.so (2013.1, Build901 2013/11/27)

>  <Rbt.Parameter_File>
/home/v/Downloads/rDock_2013.1_src/data/scripts/dock.prm

>  <Rbt.Receptor>
/home/v/Desktop/r.prm

>  <SCORE>
7.58771

>  <SCORE.INTER>
8.4

>  <SCORE.INTER.CONST>
1

>  <SCORE.INTER.POLAR>
0

>  <SCORE.INTER.REPUL>
0

>  <SCORE.INTER.ROT>
3

>  <SCORE.INTER.VDW>
0

>  <SCORE.INTER.norm>
0.6

>  <SCORE.INTRA>
-0.81229

>  <SCORE.INTRA.DIHEDRAL>
-1.17627

>  <SCORE.INTRA.DIHEDRAL.0>
1.6411

>  <SCORE.INTRA.POLAR>
0

>  <SCORE.INTRA.POLAR.0>
0

>  <SCORE.INTRA.REPUL>
0

>  <SCORE.INTRA.REPUL.0>
0

>  <SCORE.INTRA.VDW>
-0.224153

>  <SCORE.INTRA.VDW.0>
-0.639572

>  <SCORE.INTRA.norm>
-0.0580207

>  <SCORE.RESTR>
0

>  <SCORE.RESTR.CAVITY>
0

>  <SCORE.RESTR.norm>
0

>  <SCORE.SYSTEM>
0

>  <SCORE.SYSTEM.CONST>
0

>  <SCORE.SYSTEM.DIHEDRAL>
0

>  <SCORE.SYSTEM.norm>
0

>  <SCORE.heavy>
14

>  <SCORE.norm>
0.541979

$$$$
ligand.pdb
  rDOCK(R)          3D
libRbt.so/2013.1/901 2013/11/27
 14 14  0  0  0  0  0  0  0  0999 V2000
   14.4192  -10.5375  -14.6073 C   0  0  0  0  0  0
   14.9000   -4.9816  -10.0003 C   0  0  0  0  0  0
   14.9877   -9.8016  -13.4048 C   0  0  0  0  0  0
   15.9856   -8.7096  -13.7887 C   0  0  0  0  0  0
   15.9244   -7.0225  -12.0021 C   0  0  0  0  0  0
   16.1447   -5.5977   -9.9450 C   0  0  0  0  0  0
   17.0183   -5.2661   -8.9192 C   0  0  0  0  0  0
   16.6432   -4.3418   -7.9554 C   0  0  0  0  0  0
   15.4146   -3.7246   -8.0233 C   0  0  0  0  0  0
   14.5448   -4.0470   -9.0377 C   0  0  0  0  0  0
   16.5518   -8.0435  -12.6282 N   0  0  0  0  0  0
   16.5861   -6.5491  -10.8963 N   0  0  0  0  0  0
   14.8512   -6.5537  -12.4034 O   0  0  0  0  0  0
   13.9341   -9.2176  -12.6497 O   0  0  0  0  0  0
  2 10  2  0  0  0
  2  6  1  0  0  0
  3  4  1  0  0  0
  3  1  1  0  0  0
  4 11  1  0  0  0
  5 11  1  0  0  0
  5 12  1  0  0  0
  6  7  2  0  0  0
  7  8  1  0  0  0
  9  8  2  0  0  0
 10  9  1  0  0  0
 12  6  1  0  0  0
 13  5  2  0  0  0
 14  3  1  0  0  0
M  END
>  <CHROM.1>
-178.18998365,-83.83372841,0.45546166,15.52370476,-6.83874058,-11.26245925
1.69757846,0.08185629,-2.37419019

>  <Name>
ligand.pdb

>  <RI>
1.15971e+07

>  <Rbt.Current_Directory>
/home/v/Downloads/rDock_2013.1_src/bin

>  <Rbt.Executable>
rbdock ($Id: //depot/dev/client3/rdock/2013.1/src/exe/rbdock.cxx#4 $)

>  <Rbt.Library>
libRbt.so (2013.1, Build901 2013/11/27)

>  <Rbt.Parameter_File>
/home/v/Downloads/rDock_2013.1_src/data/scripts/dock.prm

>  <Rbt.Receptor>
/home/v/Desktop/r.prm

>  <SCORE>
7.58753

>  <SCORE.INTER>
8.4

>  <SCORE.INTER.CONST>
1

>  <SCORE.INTER.POLAR>
0

>  <SCORE.INTER.REPUL>
0

>  <SCORE.INTER.ROT>
3

>  <SCORE.INTER.VDW>
0

>  <SCORE.INTER.norm>
0.6

>  <SCORE.INTRA>
-0.812472

>  <SCORE.INTRA.DIHEDRAL>
-1.20063

>  <SCORE.INTRA.DIHEDRAL.0>
1.6411

>  <SCORE.INTRA.POLAR>
0

>  <SCORE.INTRA.POLAR.0>
0

>  <SCORE.INTRA.REPUL>
0

>  <SCORE.INTRA.REPUL.0>
0

>  <SCORE.INTRA.VDW>
-0.212158

>  <SCORE.INTRA.VDW.0>
-0.639572

>  <SCORE.INTRA.norm>
-0.0580337

>  <SCORE.RESTR>
0

>  <SCORE.RESTR.CAVITY>
0

>  <SCORE.RESTR.norm>
0

>  <SCORE.SYSTEM>
0

>  <SCORE.SYSTEM.CONST>
0

>  <SCORE.SYSTEM.DIHEDRAL>
0

>  <SCORE.SYSTEM.norm>
0

>  <SCORE.heavy>
14

>  <SCORE.norm>
0.541966

$$$$
ligand.pdb
  rDOCK(R)          3D
libRbt.so/2013.1/901 2013/11/27
 14 14  0  0  0  0  0  0  0  0999 V2000
   17.2299   -4.9320  -11.2813 C   0  0  0  0  0  0
   21.8198   -9.5476   -8.1495 C   0  0  0  0  0  0
   17.6313   -6.2844  -10.7151 C   0  0  0  0  0  0
   18.4997   -7.0999  -11.6724 C   0  0  0  0  0  0
   19.8949   -8.5758  -10.2879 C   0  0  0  0  0  0
   20.9353  -10.3564   -8.8535 C   0  0  0  0  0  0
   20.9175  -11.7203   -8.5992 C   0  0  0  0  0  0
   21.7634  -12.2624   -7.6429 C   0  0  0  0  0  0
   22.6471  -11.4585   -6.9588 C   0  0  0  0  0  0
   22.6713  -10.1066   -7.2068 C   0  0  0  0  0  0
   18.8515   -8.4009  -11.1298 N   0  0  0  0  0  0
   20.0464   -9.8646   -9.8400 N   0  0  0  0  0  0
   20.6502   -7.6506   -9.9619 O   0  0  0  0  0  0
   18.3339   -6.1099   -9.4916 O   0  0  0  0  0  0
  2 10  2  0  0  0
  2  6  1  0  0  0
  3  4  1  0  0  0
  3  1  1  0  0  0
  4 11  1  0  0  0
  5 11  1  0  0  0
  5 12  1  0  0  0
  6  7  2  0  0  0
  7  8  1  0  0  0
  9  8  2  0  0  0
 10  9  1  0  0  0
 12  6  1  0  0  0
 13  5  2  0  0  0
 14  3  1  0  0  0
M  END
>  <CHROM.1>
-178.76041655,-83.62862279,0.82368539,20.06580542,-8.76647200,-9.46439029
-2.56072752,0.84331929,-2.85725302

>  <Name>
ligand.pdb

>  <RI>
1.15971e+07

>  <Rbt.Current_Directory>
/home/v/Downloads/rDock_2013.1_src/bin

>  <Rbt.Executable>
rbdock ($Id: //depot/dev/client3/rdock/2013.1/src/exe/rbdock.cxx#4 $)

>  <Rbt.Library>
libRbt.so (2013.1, Build901 2013/11/27)

>  <Rbt.Parameter_File>
/home/v/Downloads/rDock_2013.1_src/data/scripts/dock.prm

>  <Rbt.Receptor>
/home/v/Desktop/r.prm

>  <SCORE>
7.58732

>  <SCORE.INTER>
8.4

>  <SCORE.INTER.CONST>
1

>  <SCORE.INTER.POLAR>
0

>  <SCORE.INTER.REPUL>
0

>  <SCORE.INTER.ROT>
3

>  <SCORE.INTER.VDW>
0

>  <SCORE.INTER.norm>
0.6

>  <SCORE.INTRA>
-0.812684

>  <SCORE.INTRA.DIHEDRAL>
-1.21207

>  <SCORE.INTRA.DIHEDRAL.0>
1.6411

>  <SCORE.INTRA.POLAR>
0

>  <SCORE.INTRA.POLAR.0>
0

>  <SCORE.INTRA.REPUL>
0

>  <SCORE.INTRA.REPUL.0>
0

>  <SCORE.INTRA.VDW>
-0.206649

>  <SCORE.INTRA.VDW.0>
-0.639572

>  <SCORE.INTRA.norm>
-0.0580489

>  <SCORE.RESTR>
0

>  <SCORE.RESTR.CAVITY>
0

>  <SCORE.RESTR.norm>
0

>  <SCORE.SYSTEM>
0

>  <SCORE.SYSTEM.CONST>
0

>  <SCORE.SYSTEM.DIHEDRAL>
0

>  <SCORE.SYSTEM.norm>
0

>  <SCORE.heavy>
14

>  <SCORE.norm>
0.541951

$$$$
ligand.pdb
  rDOCK(R)          3D
libRbt.so/2013.1/901 2013/11/27
 14 14  0  0  0  0  0  0  0  0999 V2000
   20.9023  -16.1032  -11.2477 C   0  0  0  0  0  0
   18.2896   -9.5535  -12.8579 C   0  0  0  0  0  0
   19.8178  -15.0404  -11.3188 C   0  0  0  0  0  0
   19.9317  -13.9945  -10.2104 C   0  0  0  0  0  0
   18.9178  -11.9275  -11.0714 C   0  0  0  0  0  0
   17.4722  -10.0202  -11.8351 C   0  0  0  0  0  0
   16.2780   -9.3648  -11.5715 C   0  0  0  0  0  0
   15.9024   -8.2673  -12.3319 C   0  0  0  0  0  0
   16.7226   -7.8011  -13.3344 C   0  0  0  0  0  0
   17.9080   -8.4445  -13.6000 C   0  0  0  0  0  0
   18.8636  -13.0110  -10.2645 N   0  0  0  0  0  0
   17.7979  -11.1348  -11.0247 N   0  0  0  0  0  0
   19.9002  -11.6734  -11.7804 O   0  0  0  0  0  0
   19.8633  -14.3830  -12.5785 O   0  0  0  0  0  0
  2 10  2  0  0  0
  2  6  1  0  0  0
  3  4  1  0  0  0
  3  1  1  0  0  0
  4 11  1  0  0  0
  5 11  1  0  0  0
  5 12  1  0  0  0
  6  7  2  0  0  0
  7  8  1  0  0  0
  9  8  2  0  0  0
 10  9  1  0  0  0
 12  6  1  0  0  0
 13  5  2  0  0  0
 14  3  1  0  0  0
M  END
>  <CHROM.1>
-178.09666754,-83.71334521,0.46520962,18.54797029,-11.60168498,-11.77758036
-0.83047843,0.82865128,-0.82302074

>  <Name>
ligand.pdb

>  <RI>
1.15971e+07

>  <Rbt.Current_Directory>
/home/v/Downloads/rDock_2013.1_src/bin

>  <Rbt.Executable>
rbdock ($Id: //depot/dev/client3/rdock/2013.1/src/exe/rbdock.cxx#4 $)

>  <Rbt.Library>
libRbt.so (2013.1, Build901 2013/11/27)

>  <Rbt.Parameter_File>
/home/v/Downloads/rDock_2013.1_src/data/scripts/dock.prm

>  <Rbt.Receptor>
/home/v/Desktop/r.prm

>  <SCORE>
7.58784

>  <SCORE.INTER>
8.4

>  <SCORE.INTER.CONST>
1

>  <SCORE.INTER.POLAR>
0

>  <SCORE.INTER.REPUL>
0

>  <SCORE.INTER.ROT>
3

>  <SCORE.INTER.VDW>
0

>  <SCORE.INTER.norm>
0.6

>  <SCORE.INTRA>
-0.812157

>  <SCORE.INTRA.DIHEDRAL>
-1.20286

>  <SCORE.INTRA.DIHEDRAL.0>
1.6411

>  <SCORE.INTRA.POLAR>
0

>  <SCORE.INTRA.POLAR.0>
0

>  <SCORE.INTRA.REPUL>
0

>  <SCORE.INTRA.REPUL.0>
0

>  <SCORE.INTRA.VDW>
-0.210728

>  <SCORE.INTRA.VDW.0>
-0.639572

>  <SCORE.INTRA.norm>
-0.0580112

>  <SCORE.RESTR>
0

>  <SCORE.RESTR.CAVITY>
0

>  <SCORE.RESTR.norm>
0

>  <SCORE.SYSTEM>
0

>  <SCORE.SYSTEM.CONST>
0

>  <SCORE.SYSTEM.DIHEDRAL>
0

>  <SCORE.SYSTEM.norm>
0

>  <SCORE.heavy>
14

>  <SCORE.norm>
0.541989

$$$$
ligand.pdb
  rDOCK(R)          3D
libRbt.so/2013.1/901 2013/11/27
 14 14  0  0  0  0  0  0  0  0999 V2000
   18.4126  -16.5076  -11.5921 C   0  0  0  0  0  0
   18.3403  -10.2819   -7.8989 C   0  0  0  0  0  0
   17.7315  -15.3376  -10.9008 C   0  0  0  0  0  0
   17.7240  -15.4646   -9.3779 C   0  0  0  0  0  0
   17.6539  -13.1872   -8.4559 C   0  0  0  0  0  0
   17.1205  -10.8827   -7.6102 C   0  0  0  0  0  0
   16.1229  -10.1312   -7.0057 C   0  0  0  0  0  0
   16.3404   -8.7938   -6.7090 C   0  0  0  0  0  0
   17.5552   -8.2080   -6.9845 C   0  0  0  0  0  0
   18.5486   -8.9469   -7.5818 C   0  0  0  0  0  0
   17.0377  -14.3584   -8.7328 N   0  0  0  0  0  0
   16.8360  -12.2415   -7.8890 N   0  0  0  0  0  0
   18.8549  -12.9954   -8.6870 O   0  0  0  0  0  0
   18.3743  -14.1209  -11.2581 O   0  0  0  0  0  0
  2 10  2  0  0  0
  2  6  1  0  0  0
  3  4  1  0  0  0
  3  1  1  0  0  0
  4 11  1  0  0  0
  5 11  1  0  0  0
  5 12  1  0  0  0
  6  7  2  0  0  0
  7  8  1  0  0  0
  9  8  2  0  0  0
 10  9  1  0  0  0
 12  6  1  0  0  0
 13  5  2  0  0  0
 14  3  1  0  0  0
M  END
>  <CHROM.1>
-178.40493478,-84.54139857,0.47078715,17.65347025,-12.36285485,-8.70076063
-1.42739974,0.67704809,0.42518854

>  <Name>
ligand.pdb

>  <RI>
1.15971e+07

>  <Rbt.Current_Directory>
/home/v/Downloads/rDock_2013.1_src/bin

>  <Rbt.Executable>
rbdock ($Id: //depot/dev/client3/rdock/2013.1/src/exe/rbdock.cxx#4 $)

>  <Rbt.Library>
libRbt.so (2013.1, Build901 2013/11/27)

>  <Rbt.Parameter_File>
/home/v/Downloads/rDock_2013.1_src/data/scripts/dock.prm

>  <Rbt.Receptor>
/home/v/Desktop/r.prm

>  <SCORE>
7.5874

>  <SCORE.INTER>
8.4

>  <SCORE.INTER.CONST>
1

>  <SCORE.INTER.POLAR>
0

>  <SCORE.INTER.REPUL>
0

>  <SCORE.INTER.ROT>
3

>  <SCORE.INTER.VDW>
0

>  <SCORE.INTER.norm>
0.6

>  <SCORE.INTRA>
-0.8126

>  <SCORE.INTRA.DIHEDRAL>
-1.18218

>  <SCORE.INTRA.DIHEDRAL.0>
1.6411

>  <SCORE.INTRA.POLAR>
0

>  <SCORE.INTRA.POLAR.0>
0

>  <SCORE.INTRA.REPUL>
0

>  <SCORE.INTRA.REPUL.0>
0

>  <SCORE.INTRA.VDW>
-0.22151

>  <SCORE.INTRA.VDW.0>
-0.639572

>  <SCORE.INTRA.norm>
-0.0580429

>  <SCORE.RESTR>
0

>  <SCORE.RESTR.CAVITY>
0

>  <SCORE.RESTR.norm>
0

>  <SCORE.SYSTEM>
0

>  <SCORE.SYSTEM.CONST>
0

>  <SCORE.SYSTEM.DIHEDRAL>
0

>  <SCORE.SYSTEM.norm>
0

>  <SCORE.heavy>
14

>  <SCORE.norm>
0.541957

$$$$
ligand.pdb
  rDOCK(R)          3D
libRbt.so/2013.1/901 2013/11/27
 14 14  0  0  0  0  0  0  0  0999 V2000
   18.5507  -10.5195   -9.4870 C   0  0  0  0  0  0
   11.4717  -11.5313   -8.4700 C   0  0  0  0  0  0
   17.1018  -10.5770   -9.9431 C   0  0  0  0  0  0
   16.6014  -12.0035  -10.1675 C   0  0  0  0  0  0
   14.1744  -11.9838   -9.7788 C   0  0  0  0  0  0
   11.6701  -11.7917   -9.8209 C   0  0  0  0  0  0
   10.5692  -11.8847  -10.6604 C   0  0  0  0  0  0
    9.2900  -11.7044  -10.1554 C   0  0  0  0  0  0
    9.0988  -11.4606   -8.8141 C   0  0  0  0  0  0
   10.1848  -11.3688   -7.9763 C   0  0  0  0  0  0
   15.2243  -12.0416  -10.6289 N   0  0  0  0  0  0
   12.9490  -11.9839  -10.3976 N   0  0  0  0  0  0
   14.3142  -11.9449   -8.5494 O   0  0  0  0  0  0
   16.2652   -9.9411   -8.9855 O   0  0  0  0  0  0
  2 10  2  0  0  0
  2  6  1  0  0  0
  3  4  1  0  0  0
  3  1  1  0  0  0
  4 11  1  0  0  0
  5 11  1  0  0  0
  5 12  1  0  0  0
  6  7  2  0  0  0
  7  8  1  0  0  0
  9  8  2  0  0  0
 10  9  1  0  0  0
 12  6  1  0  0  0
 13  5  2  0  0  0
 14  3  1  0  0  0
M  END
>  <CHROM.1>
-178.83369933,-83.96078732,1.56542560,13.53308579,-11.45824056,-9.54469932
0.00349063,0.11346520,1.09870859

>  <Name>
ligand.pdb

>  <RI>
1.15971e+07

>  <Rbt.Current_Directory>
/home/v/Downloads/rDock_2013.1_src/bin

>  <Rbt.Executable>
rbdock ($Id: //depot/dev/client3/rdock/2013.1/src/exe/rbdock.cxx#4 $)

>  <Rbt.Library>
libRbt.so (2013.1, Build901 2013/11/27)

>  <Rbt.Parameter_File>
/home/v/Downloads/rDock_2013.1_src/data/scripts/dock.prm

>  <Rbt.Receptor>
/home/v/Desktop/r.prm

>  <SCORE>
7.58741

>  <SCORE.INTER>
8.4

>  <SCORE.INTER.CONST>
1

>  <SCORE.INTER.POLAR>
0

>  <SCORE.INTER.REPUL>
0

>  <SCORE.INTER.ROT>
3

>  <SCORE.INTER.VDW>
0

>  <SCORE.INTER.norm>
0.6

>  <SCORE.INTRA>
-0.81259

>  <SCORE.INTRA.DIHEDRAL>
-1.19848

>  <SCORE.INTRA.DIHEDRAL.0>
1.6411

>  <SCORE.INTRA.POLAR>
0

>  <SCORE.INTRA.POLAR.0>
0

>  <SCORE.INTRA.REPUL>
0

>  <SCORE.INTRA.REPUL.0>
0

>  <SCORE.INTRA.VDW>
-0.213348

>  <SCORE.INTRA.VDW.0>
-0.639572

>  <SCORE.INTRA.norm>
-0.0580421

>  <SCORE.RESTR>
0

>  <SCORE.RESTR.CAVITY>
0

>  <SCORE.RESTR.norm>
0

>  <SCORE.SYSTEM>
0

>  <SCORE.SYSTEM.CONST>
0

>  <SCORE.SYSTEM.DIHEDRAL>
0

>  <SCORE.SYSTEM.norm>
0

>  <SCORE.heavy>
14

>  <SCORE.norm>
0.541958

$$$$
ligand.pdb
  rDOCK(R)          3D
libRbt.so/2013.1/901 2013/11/27
 14 14  0  0  0  0  0  0  0  0999 V2000
   11.3317   -6.9883   -8.2678 C   0  0  0  0  0  0
   16.1130  -11.2734  -11.5907 C   0  0  0  0  0  0
   12.5610   -7.2574   -9.1207 C   0  0  0  0  0  0
   13.7882   -7.6440   -8.2959 C   0  0  0  0  0  0
   15.2013   -9.0503   -9.7337 C   0  0  0  0  0  0
   16.7903  -10.0769  -11.3864 C   0  0  0  0  0  0
   17.9843   -9.8528  -12.0569 C   0  0  0  0  0  0
   18.4835  -10.8079  -12.9301 C   0  0  0  0  0  0
   17.8155  -11.9969  -13.1178 C   0  0  0  0  0  0
   16.6329  -12.2263  -12.4556 C   0  0  0  0  0  0
   14.9624   -7.8687   -9.1216 N   0  0  0  0  0  0
   16.3332   -9.0627  -10.5104 N   0  0  0  0  0  0
   14.4640  -10.0346   -9.5927 O   0  0  0  0  0  0
   12.2877   -8.2948  -10.0535 O   0  0  0  0  0  0
  2 10  2  0  0  0
  2  6  1  0  0  0
  3  4  1  0  0  0
  3  1  1  0  0  0
  4 11  1  0  0  0
  5 11  1  0  0  0
  5 12  1  0  0  0
  6  7  2  0  0  0
  7  8  1  0  0  0
  9  8  2  0  0  0
 10  9  1  0  0  0
 12  6  1  0  0  0
 13  5  2  0  0  0
 14  3  1  0  0  0
M  END
>  <CHROM.1>
-178.69901914,-83.72029245,-0.06582297,15.22383433,-9.40346059,-10.52004701
2.35671400,0.19041246,0.59931009

>  <Name>
ligand.pdb

>  <RI>
1.15971e+07

>  <Rbt.Current_Directory>
/home/v/Downloads/rDock_2013.1_src/bin

>  <Rbt.Executable>
rbdock ($Id: //depot/dev/client3/rdock/2013.1/src/exe/rbdock.cxx#4 $)

>  <Rbt.Library>
libRbt.so (2013.1, Build901 2013/11/27)

>  <Rbt.Parameter_File>
/home/v/Downloads/rDock_2013.1_src/data/scripts/dock.prm

>  <Rbt.Receptor>
/home/v/Desktop/r.prm

>  <SCORE>
7.58754

>  <SCORE.INTER>
8.4

>  <SCORE.INTER.CONST>
1

>  <SCORE.INTER.POLAR>
0

>  <SCORE.INTER.REPUL>
0

>  <SCORE.INTER.ROT>
3

>  <SCORE.INTER.VDW>
0

>  <SCORE.INTER.norm>
0.6

>  <SCORE.INTRA>
-0.812459

>  <SCORE.INTRA.DIHEDRAL>
-1.21118

>  <SCORE.INTRA.DIHEDRAL.0>
1.6411

>  <SCORE.INTRA.POLAR>
0

>  <SCORE.INTRA.POLAR.0>
0

>  <SCORE.INTRA.REPUL>
0

>  <SCORE.INTRA.REPUL.0>
0

>  <SCORE.INTRA.VDW>
-0.206871

>  <SCORE.INTRA.VDW.0>
-0.639572

>  <SCORE.INTRA.norm>
-0.0580328

>  <SCORE.RESTR>
0

>  <SCORE.RESTR.CAVITY>
0

>  <SCORE.RESTR.norm>
0

>  <SCORE.SYSTEM>
0

>  <SCORE.SYSTEM.CONST>
0

>  <SCORE.SYSTEM.DIHEDRAL>
0

>  <SCORE.SYSTEM.norm>
0

>  <SCORE.heavy>
14

>  <SCORE.norm>
0.541967

$$$$
ligand.pdb
  rDOCK(R)          3D
libRbt.so/2013.1/901 2013/11/27
 14 14  0  0  0  0  0  0  0  0999 V2000
   16.3531   -3.2938  -13.1908 C   0  0  0  0  0  0
   13.2949   -9.4384  -10.9282 C   0  0  0  0  0  0
   16.0448   -4.3727  -12.1653 C   0  0  0  0  0  0
   14.6588   -4.2238  -11.5387 C   0  0  0  0  0  0
   13.9445   -6.4729  -10.8508 C   0  0  0  0  0  0
   13.4875   -8.6941   -9.7702 C   0  0  0  0  0  0
   13.3613   -9.3174   -8.5370 C   0  0  0  0  0  0
   13.0613  -10.6698   -8.4668 C   0  0  0  0  0  0
   12.8580  -11.3987   -9.6168 C   0  0  0  0  0  0
   12.9797  -10.7872  -10.8419 C   0  0  0  0  0  0
   14.3936   -5.2379  -10.5326 N   0  0  0  0  0  0
   13.7966   -7.3122   -9.7746 N   0  0  0  0  0  0
   13.6818   -6.8070  -12.0135 O   0  0  0  0  0  0
   16.1423   -5.6571  -12.7668 O   0  0  0  0  0  0
  2 10  2  0  0  0
  2  6  1  0  0  0
  3  4  1  0  0  0
  3  1  1  0  0  0
  4 11  1  0  0  0
  5 11  1  0  0  0
  5 12  1  0  0  0
  6  7  2  0  0  0
  7  8  1  0  0  0
  9  8  2  0  0  0
 10  9  1  0  0  0
 12  6  1  0  0  0
 13  5  2  0  0  0
 14  3  1  0  0  0
M  END
>  <CHROM.1>
-178.29900758,-83.49596222,0.82192999,14.20083373,-7.29564726,-10.86313315
-0.43674606,-1.15770865,-2.48248087

>  <Name>
ligand.pdb

>  <RI>
1.15971e+07

>  <Rbt.Current_Directory>
/home/v/Downloads/rDock_2013.1_src/bin

>  <Rbt.Executable>
rbdock ($Id: //depot/dev/client3/rdock/2013.1/src/exe/rbdock.cxx#4 $)

>  <Rbt.Library>
libRbt.so (2013.1, Build901 2013/11/27)

>  <Rbt.Parameter_File>
/home/v/Downloads/rDock_2013.1_src/data/scripts/dock.prm

>  <Rbt.Receptor>
/home/v/Desktop/r.prm

>  <SCORE>
7.58782

>  <SCORE.INTER>
8.4

>  <SCORE.INTER.CONST>
1

>  <SCORE.INTER.POLAR>
0

>  <SCORE.INTER.REPUL>
0

>  <SCORE.INTER.ROT>
3

>  <SCORE.INTER.VDW>
0

>  <SCORE.INTER.norm>
0.6

>  <SCORE.INTRA>
-0.812179

>  <SCORE.INTRA.DIHEDRAL>
-1.21075

>  <SCORE.INTRA.DIHEDRAL.0>
1.6411

>  <SCORE.INTRA.POLAR>
0

>  <SCORE.INTRA.POLAR.0>
0

>  <SCORE.INTRA.REPUL>
0

>  <SCORE.INTRA.REPUL.0>
0

>  <SCORE.INTRA.VDW>
-0.206804

>  <SCORE.INTRA.VDW.0>
-0.639572

>  <SCORE.INTRA.norm>
-0.0580128

>  <SCORE.RESTR>
0

>  <SCORE.RESTR.CAVITY>
0

>  <SCORE.RESTR.norm>
0

>  <SCORE.SYSTEM>
0

>  <SCORE.SYSTEM.CONST>
0

>  <SCORE.SYSTEM.DIHEDRAL>
0

>  <SCORE.SYSTEM.norm>
0

>  <SCORE.heavy>
14

>  <SCORE.norm>
0.541987

$$$$
