ligand.pdb
  rDOCK(R)          3D
libRbt.so/2013.1/901 2013/11/27
 14 14  0  0  0  0  0  0  0  0999 V2000
   14.0566  -13.6334   -5.9545 C   0  0  0  0  0  0
   18.8598  -10.1195  -11.2439 C   0  0  0  0  0  0
   14.1379  -13.0599   -7.3599 C   0  0  0  0  0  0
   15.4939  -12.4267   -7.6699 C   0  0  0  0  0  0
   16.6534  -11.2486   -9.4891 C   0  0  0  0  0  0
   17.5329  -10.2702  -11.6292 C   0  0  0  0  0  0
   17.1475   -9.8662  -12.8995 C   0  0  0  0  0  0
   18.0820   -9.3331  -13.7749 C   0  0  0  0  0  0
   19.3919   -9.1733  -13.3828 C   0  0  0  0  0  0
   19.7803   -9.5698  -12.1253 C   0  0  0  0  0  0
   15.5452  -11.8519   -9.0033 N   0  0  0  0  0  0
   16.5324  -10.8080  -10.7837 N   0  0  0  0  0  0
   17.6812  -11.1010   -8.8151 O   0  0  0  0  0  0
   13.8761  -14.0785   -8.3164 O   0  0  0  0  0  0
  2 10  2  0  0  0
  2  6  1  0  0  0
  3  4  1  0  0  0
  3  1  1  0  0  0
  4 11  1  0  0  0
  5 11  1  0  0  0
  5 12  1  0  0  0
  6  7  2  0  0  0
  7  8  1  0  0  0
  9  8  2  0  0  0
 10  9  1  0  0  0
 12  6  1  0  0  0
 13  5  2  0  0  0
 14  3  1  0  0  0
M  END
>  <CHROM.1>
-178.47951479,-179.51561626,0.77798448,16.69218479,-11.26374590,-10.05998588
-2.21478539,-0.44367976,-1.28416165

>  <Name>
ligand.pdb

>  <RI>
2.24188e+07

>  <Rbt.Current_Directory>
/home/v/Downloads/rDock_2013.1_src/bin

>  <Rbt.Executable>
rbdock ($Id: //depot/dev/client3/rdock/2013.1/src/exe/rbdock.cxx#4 $)

>  <Rbt.Library>
libRbt.so (2013.1, Build901 2013/11/27)

>  <Rbt.Parameter_File>
/home/v/Downloads/rDock_2013.1_src/data/scripts/dock_solv.prm

>  <Rbt.Receptor>
/home/v/Desktop/r.prm

>  <SCORE>
7.49243

>  <SCORE.INTER>
8.4

>  <SCORE.INTER.CONST>
1

>  <SCORE.INTER.POLAR>
0

>  <SCORE.INTER.ROT>
3

>  <SCORE.INTER.SOLV>
0

>  <SCORE.INTER.VDW>
0

>  <SCORE.INTER.norm>
0.6

>  <SCORE.INTRA>
-0.907572

>  <SCORE.INTRA.DIHEDRAL>
-1.61259

>  <SCORE.INTRA.DIHEDRAL.0>
1.6411

>  <SCORE.INTRA.POLAR>
0

>  <SCORE.INTRA.POLAR.0>
0

>  <SCORE.INTRA.REPUL>
0

>  <SCORE.INTRA.REPUL.0>
0

>  <SCORE.INTRA.SOLV>
-0.293672

>  <SCORE.INTRA.SOLV.lig_0>
-16.0602

>  <SCORE.INTRA.VDW>
0.0455571

>  <SCORE.INTRA.VDW.0>
-0.639572

>  <SCORE.INTRA.norm>
-0.0648266

>  <SCORE.RESTR>
0

>  <SCORE.RESTR.CAVITY>
0

>  <SCORE.RESTR.norm>
0

>  <SCORE.SYSTEM>
0

>  <SCORE.SYSTEM.CONST>
0

>  <SCORE.SYSTEM.DIHEDRAL>
0

>  <SCORE.SYSTEM.SOLV>
0

>  <SCORE.SYSTEM.norm>
0

>  <SCORE.heavy>
14

>  <SCORE.norm>
0.535173

$$$$
ligand.pdb
  rDOCK(R)          3D
libRbt.so/2013.1/901 2013/11/27
 14 14  0  0  0  0  0  0  0  0999 V2000
   16.4417   -7.2223  -14.0785 C   0  0  0  0  0  0
   14.7119   -8.2640   -6.3769 C   0  0  0  0  0  0
   16.2487   -8.2603  -12.9849 C   0  0  0  0  0  0
   15.9866   -7.6414  -11.6124 C   0  0  0  0  0  0
   15.5945   -8.3181   -9.2821 C   0  0  0  0  0  0
   15.0350   -9.4119   -7.0910 C   0  0  0  0  0  0
   14.9823  -10.6427   -6.4525 C   0  0  0  0  0  0
   14.5970  -10.7223   -5.1224 C   0  0  0  0  0  0
   14.2917   -9.5806   -4.4164 C   0  0  0  0  0  0
   14.3433   -8.3578   -5.0421 C   0  0  0  0  0  0
   15.8359   -8.6442  -10.5719 N   0  0  0  0  0  0
   15.4339   -9.3978   -8.4496 N   0  0  0  0  0  0
   15.5351   -7.1449   -8.8915 O   0  0  0  0  0  0
   15.1660   -9.1200  -13.3164 O   0  0  0  0  0  0
  2 10  2  0  0  0
  2  6  1  0  0  0
  3  4  1  0  0  0
  3  1  1  0  0  0
  4 11  1  0  0  0
  5 11  1  0  0  0
  5 12  1  0  0  0
  6  7  2  0  0  0
  7  8  1  0  0  0
  9  8  2  0  0  0
 10  9  1  0  0  0
 12  6  1  0  0  0
 13  5  2  0  0  0
 14  3  1  0  0  0
M  END
>  <CHROM.1>
-178.62609956,-179.82886995,1.08258561,15.32078058,-8.72594021,-8.98939401
-0.44161058,1.37371818,0.64780323

>  <Name>
ligand.pdb

>  <RI>
2.24188e+07

>  <Rbt.Current_Directory>
/home/v/Downloads/rDock_2013.1_src/bin

>  <Rbt.Executable>
rbdock ($Id: //depot/dev/client3/rdock/2013.1/src/exe/rbdock.cxx#4 $)

>  <Rbt.Library>
libRbt.so (2013.1, Build901 2013/11/27)

>  <Rbt.Parameter_File>
/home/v/Downloads/rDock_2013.1_src/data/scripts/dock_solv.prm

>  <Rbt.Receptor>
/home/v/Desktop/r.prm

>  <SCORE>
7.49222

>  <SCORE.INTER>
8.4

>  <SCORE.INTER.CONST>
1

>  <SCORE.INTER.POLAR>
0

>  <SCORE.INTER.ROT>
3

>  <SCORE.INTER.SOLV>
0

>  <SCORE.INTER.VDW>
0

>  <SCORE.INTER.norm>
0.6

>  <SCORE.INTRA>
-0.907777

>  <SCORE.INTRA.DIHEDRAL>
-1.61291

>  <SCORE.INTRA.DIHEDRAL.0>
1.6411

>  <SCORE.INTRA.POLAR>
0

>  <SCORE.INTRA.POLAR.0>
0

>  <SCORE.INTRA.REPUL>
0

>  <SCORE.INTRA.REPUL.0>
0

>  <SCORE.INTRA.SOLV>
-0.293467

>  <SCORE.INTRA.SOLV.lig_0>
-16.0602

>  <SCORE.INTRA.VDW>
0.0454124

>  <SCORE.INTRA.VDW.0>
-0.639572

>  <SCORE.INTRA.norm>
-0.0648412

>  <SCORE.RESTR>
0

>  <SCORE.RESTR.CAVITY>
0

>  <SCORE.RESTR.norm>
0

>  <SCORE.SYSTEM>
0

>  <SCORE.SYSTEM.CONST>
0

>  <SCORE.SYSTEM.DIHEDRAL>
0

>  <SCORE.SYSTEM.SOLV>
0

>  <SCORE.SYSTEM.norm>
0

>  <SCORE.heavy>
14

>  <SCORE.norm>
0.535159

$$$$
ligand.pdb
  rDOCK(R)          3D
libRbt.so/2013.1/901 2013/11/27
 14 14  0  0  0  0  0  0  0  0999 V2000
   11.3489   -7.3734   -9.4922 C   0  0  0  0  0  0
   16.4835  -13.3224  -10.7846 C   0  0  0  0  0  0
   12.2434   -8.4014   -8.8186 C   0  0  0  0  0  0
   12.9473   -9.3247   -9.8126 C   0  0  0  0  0  0
   14.4694  -11.2544   -9.8418 C   0  0  0  0  0  0
   16.1732  -13.0595   -9.4555 C   0  0  0  0  0  0
   16.8034  -13.7884   -8.4571 C   0  0  0  0  0  0
   17.7413  -14.7558   -8.7864 C   0  0  0  0  0  0
   18.0342  -15.0215  -10.1050 C   0  0  0  0  0  0
   17.4125  -14.3043  -11.0993 C   0  0  0  0  0  0
   13.7698  -10.3246   -9.1534 N   0  0  0  0  0  0
   15.2271  -12.0853   -9.0543 N   0  0  0  0  0  0
   14.4179  -11.3487  -11.0751 O   0  0  0  0  0  0
   13.2242   -7.7464   -8.0248 O   0  0  0  0  0  0
  2 10  2  0  0  0
  2  6  1  0  0  0
  3  4  1  0  0  0
  3  1  1  0  0  0
  4 11  1  0  0  0
  5 11  1  0  0  0
  5 12  1  0  0  0
  6  7  2  0  0  0
  7  8  1  0  0  0
  9  8  2  0  0  0
 10  9  1  0  0  0
 12  6  1  0  0  0
 13  5  2  0  0  0
 14  3  1  0  0  0
M  END
>  <CHROM.1>
-178.42991489,179.20986866,0.06194345,14.92551556,-11.44981845,-9.56285737
2.81536290,-0.85008489,1.27194193

>  <Name>
ligand.pdb

>  <RI>
2.24188e+07

>  <Rbt.Current_Directory>
/home/v/Downloads/rDock_2013.1_src/bin

>  <Rbt.Executable>
rbdock ($Id: //depot/dev/client3/rdock/2013.1/src/exe/rbdock.cxx#4 $)

>  <Rbt.Library>
libRbt.so (2013.1, Build901 2013/11/27)

>  <Rbt.Parameter_File>
/home/v/Downloads/rDock_2013.1_src/data/scripts/dock_solv.prm

>  <Rbt.Receptor>
/home/v/Desktop/r.prm

>  <SCORE>
7.4924

>  <SCORE.INTER>
8.4

>  <SCORE.INTER.CONST>
1

>  <SCORE.INTER.POLAR>
0

>  <SCORE.INTER.ROT>
3

>  <SCORE.INTER.SOLV>
0

>  <SCORE.INTER.VDW>
0

>  <SCORE.INTER.norm>
0.6

>  <SCORE.INTRA>
-0.907604

>  <SCORE.INTRA.DIHEDRAL>
-1.61375

>  <SCORE.INTRA.DIHEDRAL.0>
1.6411

>  <SCORE.INTRA.POLAR>
0

>  <SCORE.INTRA.POLAR.0>
0

>  <SCORE.INTRA.REPUL>
0

>  <SCORE.INTRA.REPUL.0>
0

>  <SCORE.INTRA.SOLV>
-0.295636

>  <SCORE.INTRA.SOLV.lig_0>
-16.0602

>  <SCORE.INTRA.VDW>
0.0470911

>  <SCORE.INTRA.VDW.0>
-0.639572

>  <SCORE.INTRA.norm>
-0.0648289

>  <SCORE.RESTR>
0

>  <SCORE.RESTR.CAVITY>
0

>  <SCORE.RESTR.norm>
0

>  <SCORE.SYSTEM>
0

>  <SCORE.SYSTEM.CONST>
0

>  <SCORE.SYSTEM.DIHEDRAL>
0

>  <SCORE.SYSTEM.SOLV>
0

>  <SCORE.SYSTEM.norm>
0

>  <SCORE.heavy>
14

>  <SCORE.norm>
0.535171

$$$$
ligand.pdb
  rDOCK(R)          3D
libRbt.so/2013.1/901 2013/11/27
 14 14  0  0  0  0  0  0  0  0999 V2000
   13.0598   -5.4768  -17.1871 C   0  0  0  0  0  0
   17.9452   -8.7315  -11.8066 C   0  0  0  0  0  0
   13.2240   -6.6199  -16.1986 C   0  0  0  0  0  0
   14.5885   -6.6241  -15.5103 C   0  0  0  0  0  0
   15.8787   -7.9458  -13.8885 C   0  0  0  0  0  0
   16.7737   -9.4312  -12.0711 C   0  0  0  0  0  0
   16.5049  -10.5927  -11.3611 C   0  0  0  0  0  0
   17.3903  -11.0372  -10.3904 C   0  0  0  0  0  0
   18.5557  -10.3476  -10.1426 C   0  0  0  0  0  0
   18.8293   -9.1971  -10.8433 C   0  0  0  0  0  0
   14.7474   -7.7466  -14.6017 N   0  0  0  0  0  0
   15.8298   -9.0295  -13.0472 N   0  0  0  0  0  0
   16.8724   -7.2157  -13.9980 O   0  0  0  0  0  0
   12.2081   -6.5542  -15.2063 O   0  0  0  0  0  0
  2 10  2  0  0  0
  2  6  1  0  0  0
  3  4  1  0  0  0
  3  1  1  0  0  0
  4 11  1  0  0  0
  5 11  1  0  0  0
  5 12  1  0  0  0
  6  7  2  0  0  0
  7  8  1  0  0  0
  9  8  2  0  0  0
 10  9  1  0  0  0
 12  6  1  0  0  0
 13  5  2  0  0  0
 14  3  1  0  0  0
M  END
>  <CHROM.1>
-178.11027631,179.91907686,0.70176175,15.79686205,-8.23791258,-13.40563414
-2.21910326,0.26707938,2.39284024

>  <Name>
ligand.pdb

>  <RI>
2.24188e+07

>  <Rbt.Current_Directory>
/home/v/Downloads/rDock_2013.1_src/bin

>  <Rbt.Executable>
rbdock ($Id: //depot/dev/client3/rdock/2013.1/src/exe/rbdock.cxx#4 $)

>  <Rbt.Library>
libRbt.so (2013.1, Build901 2013/11/27)

>  <Rbt.Parameter_File>
/home/v/Downloads/rDock_2013.1_src/data/scripts/dock_solv.prm

>  <Rbt.Receptor>
/home/v/Desktop/r.prm

>  <SCORE>
7.49268

>  <SCORE.INTER>
8.4

>  <SCORE.INTER.CONST>
1

>  <SCORE.INTER.POLAR>
0

>  <SCORE.INTER.ROT>
3

>  <SCORE.INTER.SOLV>
0

>  <SCORE.INTER.VDW>
0

>  <SCORE.INTER.norm>
0.6

>  <SCORE.INTRA>
-0.907318

>  <SCORE.INTRA.DIHEDRAL>
-1.60826

>  <SCORE.INTRA.DIHEDRAL.0>
1.6411

>  <SCORE.INTRA.POLAR>
0

>  <SCORE.INTRA.POLAR.0>
0

>  <SCORE.INTRA.REPUL>
0

>  <SCORE.INTRA.REPUL.0>
0

>  <SCORE.INTRA.SOLV>
-0.296103

>  <SCORE.INTRA.SOLV.lig_0>
-16.0602

>  <SCORE.INTRA.VDW>
0.0448623

>  <SCORE.INTRA.VDW.0>
-0.639572

>  <SCORE.INTRA.norm>
-0.0648085

>  <SCORE.RESTR>
0

>  <SCORE.RESTR.CAVITY>
0

>  <SCORE.RESTR.norm>
0

>  <SCORE.SYSTEM>
0

>  <SCORE.SYSTEM.CONST>
0

>  <SCORE.SYSTEM.DIHEDRAL>
0

>  <SCORE.SYSTEM.SOLV>
0

>  <SCORE.SYSTEM.norm>
0

>  <SCORE.heavy>
14

>  <SCORE.norm>
0.535192

$$$$
ligand.pdb
  rDOCK(R)          3D
libRbt.so/2013.1/901 2013/11/27
 14 14  0  0  0  0  0  0  0  0999 V2000
    9.1516   -5.6834  -11.9931 C   0  0  0  0  0  0
   16.9492   -6.8803  -10.9053 C   0  0  0  0  0  0
   10.2164   -6.0293  -10.9648 C   0  0  0  0  0  0
   11.6151   -6.1488  -11.5691 C   0  0  0  0  0  0
   13.9188   -6.6850  -10.9004 C   0  0  0  0  0  0
   16.1394   -7.0746   -9.7925 C   0  0  0  0  0  0
   16.7260   -7.3996   -8.5777 C   0  0  0  0  0  0
   18.1048   -7.5131   -8.4775 C   0  0  0  0  0  0
   18.9008   -7.3332   -9.5862 C   0  0  0  0  0  0
   18.3262   -7.0127  -10.7931 C   0  0  0  0  0  0
   12.6174   -6.5065  -10.5800 N   0  0  0  0  0  0
   14.7276   -6.9720   -9.8289 N   0  0  0  0  0  0
   14.3355   -6.6051  -12.0633 O   0  0  0  0  0  0
   10.2404   -5.0445   -9.9399 O   0  0  0  0  0  0
  2 10  2  0  0  0
  2  6  1  0  0  0
  3  4  1  0  0  0
  3  1  1  0  0  0
  4 11  1  0  0  0
  5 11  1  0  0  0
  5 12  1  0  0  0
  6  7  2  0  0  0
  7  8  1  0  0  0
  9  8  2  0  0  0
 10  9  1  0  0  0
 12  6  1  0  0  0
 13  5  2  0  0  0
 14  3  1  0  0  0
M  END
>  <CHROM.1>
-178.81828910,178.97204061,0.33612415,14.27512135,-6.59550987,-10.46558022
-2.94301827,-0.19441214,1.59069275

>  <Name>
ligand.pdb

>  <RI>
2.24188e+07

>  <Rbt.Current_Directory>
/home/v/Downloads/rDock_2013.1_src/bin

>  <Rbt.Executable>
rbdock ($Id: //depot/dev/client3/rdock/2013.1/src/exe/rbdock.cxx#4 $)

>  <Rbt.Library>
libRbt.so (2013.1, Build901 2013/11/27)

>  <Rbt.Parameter_File>
/home/v/Downloads/rDock_2013.1_src/data/scripts/dock_solv.prm

>  <Rbt.Receptor>
/home/v/Desktop/r.prm

>  <SCORE>
7.49217

>  <SCORE.INTER>
8.4

>  <SCORE.INTER.CONST>
1

>  <SCORE.INTER.POLAR>
0

>  <SCORE.INTER.ROT>
3

>  <SCORE.INTER.SOLV>
0

>  <SCORE.INTER.VDW>
0

>  <SCORE.INTER.norm>
0.6

>  <SCORE.INTRA>
-0.907825

>  <SCORE.INTRA.DIHEDRAL>
-1.617

>  <SCORE.INTRA.DIHEDRAL.0>
1.6411

>  <SCORE.INTRA.POLAR>
0

>  <SCORE.INTRA.POLAR.0>
0

>  <SCORE.INTRA.REPUL>
0

>  <SCORE.INTRA.REPUL.0>
0

>  <SCORE.INTRA.SOLV>
-0.294207

>  <SCORE.INTRA.SOLV.lig_0>
-16.0602

>  <SCORE.INTRA.VDW>
0.0477801

>  <SCORE.INTRA.VDW.0>
-0.639572

>  <SCORE.INTRA.norm>
-0.0648447

>  <SCORE.RESTR>
0

>  <SCORE.RESTR.CAVITY>
0

>  <SCORE.RESTR.norm>
0

>  <SCORE.SYSTEM>
0

>  <SCORE.SYSTEM.CONST>
0

>  <SCORE.SYSTEM.DIHEDRAL>
0

>  <SCORE.SYSTEM.SOLV>
0

>  <SCORE.SYSTEM.norm>
0

>  <SCORE.heavy>
14

>  <SCORE.norm>
0.535155

$$$$
ligand.pdb
  rDOCK(R)          3D
libRbt.so/2013.1/901 2013/11/27
 14 14  0  0  0  0  0  0  0  0999 V2000
   11.0088   -6.3783  -13.5118 C   0  0  0  0  0  0
   12.5823  -12.3627   -8.4982 C   0  0  0  0  0  0
   11.7273   -7.7098  -13.3646 C   0  0  0  0  0  0
   11.6107   -8.3004  -11.9599 C   0  0  0  0  0  0
   12.3805  -10.2389  -10.6594 C   0  0  0  0  0  0
   13.1837  -12.4382   -9.7491 C   0  0  0  0  0  0
   13.9553  -13.5480  -10.0625 C   0  0  0  0  0  0
   14.1090  -14.5731   -9.1410 C   0  0  0  0  0  0
   13.5224  -14.4864   -7.8986 C   0  0  0  0  0  0
   12.7580  -13.3891   -7.5807 C   0  0  0  0  0  0
   12.3295   -9.5558  -11.8251 N   0  0  0  0  0  0
   13.0644  -11.4270  -10.7332 N   0  0  0  0  0  0
   11.8617   -9.8179   -9.6173 O   0  0  0  0  0  0
   11.2121   -8.6463  -14.3019 O   0  0  0  0  0  0
  2 10  2  0  0  0
  2  6  1  0  0  0
  3  4  1  0  0  0
  3  1  1  0  0  0
  4 11  1  0  0  0
  5 11  1  0  0  0
  5 12  1  0  0  0
  6  7  2  0  0  0
  7  8  1  0  0  0
  9  8  2  0  0  0
 10  9  1  0  0  0
 12  6  1  0  0  0
 13  5  2  0  0  0
 14  3  1  0  0  0
M  END
>  <CHROM.1>
-178.57738232,178.75528786,0.28966206,12.46943744,-10.79628180,-10.72571047
2.19616157,1.11152330,-1.23372050

>  <Name>
ligand.pdb

>  <RI>
2.24188e+07

>  <Rbt.Current_Directory>
/home/v/Downloads/rDock_2013.1_src/bin

>  <Rbt.Executable>
rbdock ($Id: //depot/dev/client3/rdock/2013.1/src/exe/rbdock.cxx#4 $)

>  <Rbt.Library>
libRbt.so (2013.1, Build901 2013/11/27)

>  <Rbt.Parameter_File>
/home/v/Downloads/rDock_2013.1_src/data/scripts/dock_solv.prm

>  <Rbt.Receptor>
/home/v/Desktop/r.prm

>  <SCORE>
7.49232

>  <SCORE.INTER>
8.4

>  <SCORE.INTER.CONST>
1

>  <SCORE.INTER.POLAR>
0

>  <SCORE.INTER.ROT>
3

>  <SCORE.INTER.SOLV>
0

>  <SCORE.INTER.VDW>
0

>  <SCORE.INTER.norm>
0.6

>  <SCORE.INTRA>
-0.907679

>  <SCORE.INTRA.DIHEDRAL>
-1.61426

>  <SCORE.INTRA.DIHEDRAL.0>
1.6411

>  <SCORE.INTRA.POLAR>
0

>  <SCORE.INTRA.POLAR.0>
0

>  <SCORE.INTRA.REPUL>
0

>  <SCORE.INTRA.REPUL.0>
0

>  <SCORE.INTRA.SOLV>
-0.295556

>  <SCORE.INTRA.SOLV.lig_0>
-16.0602

>  <SCORE.INTRA.VDW>
0.0472282

>  <SCORE.INTRA.VDW.0>
-0.639572

>  <SCORE.INTRA.norm>
-0.0648342

>  <SCORE.RESTR>
0

>  <SCORE.RESTR.CAVITY>
0

>  <SCORE.RESTR.norm>
0

>  <SCORE.SYSTEM>
0

>  <SCORE.SYSTEM.CONST>
0

>  <SCORE.SYSTEM.DIHEDRAL>
0

>  <SCORE.SYSTEM.SOLV>
0

>  <SCORE.SYSTEM.norm>
0

>  <SCORE.heavy>
14

>  <SCORE.norm>
0.535166

$$$$
ligand.pdb
  rDOCK(R)          3D
libRbt.so/2013.1/901 2013/11/27
 14 14  0  0  0  0  0  0  0  0999 V2000
   22.1143  -10.7030  -12.9063 C   0  0  0  0  0  0
   16.2862  -12.2120   -7.6967 C   0  0  0  0  0  0
   21.3163  -11.8059  -12.2298 C   0  0  0  0  0  0
   20.3337  -11.2784  -11.1848 C   0  0  0  0  0  0
   18.6718  -12.1037   -9.5728 C   0  0  0  0  0  0
   16.9461  -13.3213   -8.2126 C   0  0  0  0  0  0
   16.5243  -14.5908   -7.8443 C   0  0  0  0  0  0
   15.4476  -14.7454   -6.9837 C   0  0  0  0  0  0
   14.8067  -13.6430   -6.4651 C   0  0  0  0  0  0
   15.2203  -12.3823   -6.8243 C   0  0  0  0  0  0
   19.6019  -12.3454  -10.5238 N   0  0  0  0  0  0
   18.0496  -13.2305   -9.0953 N   0  0  0  0  0  0
   18.4162  -10.9629   -9.1657 O   0  0  0  0  0  0
   20.5969  -12.5521  -13.2027 O   0  0  0  0  0  0
  2 10  2  0  0  0
  2  6  1  0  0  0
  3  4  1  0  0  0
  3  1  1  0  0  0
  4 11  1  0  0  0
  5 11  1  0  0  0
  5 12  1  0  0  0
  6  7  2  0  0  0
  7  8  1  0  0  0
  9  8  2  0  0  0
 10  9  1  0  0  0
 12  6  1  0  0  0
 13  5  2  0  0  0
 14  3  1  0  0  0
M  END
>  <CHROM.1>
-178.59527712,-179.38926180,1.30866026,18.27197639,-12.51189611,-9.53254896
0.05521890,0.79661833,0.28768168

>  <Name>
ligand.pdb

>  <RI>
2.24188e+07

>  <Rbt.Current_Directory>
/home/v/Downloads/rDock_2013.1_src/bin

>  <Rbt.Executable>
rbdock ($Id: //depot/dev/client3/rdock/2013.1/src/exe/rbdock.cxx#4 $)

>  <Rbt.Library>
libRbt.so (2013.1, Build901 2013/11/27)

>  <Rbt.Parameter_File>
/home/v/Downloads/rDock_2013.1_src/data/scripts/dock_solv.prm

>  <Rbt.Receptor>
/home/v/Desktop/r.prm

>  <SCORE>
7.4927

>  <SCORE.INTER>
8.4

>  <SCORE.INTER.CONST>
1

>  <SCORE.INTER.POLAR>
0

>  <SCORE.INTER.ROT>
3

>  <SCORE.INTER.SOLV>
0

>  <SCORE.INTER.VDW>
0

>  <SCORE.INTER.norm>
0.6

>  <SCORE.INTRA>
-0.907299

>  <SCORE.INTRA.DIHEDRAL>
-1.61096

>  <SCORE.INTRA.DIHEDRAL.0>
1.6411

>  <SCORE.INTRA.POLAR>
0

>  <SCORE.INTRA.POLAR.0>
0

>  <SCORE.INTRA.REPUL>
0

>  <SCORE.INTRA.REPUL.0>
0

>  <SCORE.INTRA.SOLV>
-0.29299

>  <SCORE.INTRA.SOLV.lig_0>
-16.0602

>  <SCORE.INTRA.VDW>
0.0446747

>  <SCORE.INTRA.VDW.0>
-0.639572

>  <SCORE.INTRA.norm>
-0.064807

>  <SCORE.RESTR>
0

>  <SCORE.RESTR.CAVITY>
0

>  <SCORE.RESTR.norm>
0

>  <SCORE.SYSTEM>
0

>  <SCORE.SYSTEM.CONST>
0

>  <SCORE.SYSTEM.DIHEDRAL>
0

>  <SCORE.SYSTEM.SOLV>
0

>  <SCORE.SYSTEM.norm>
0

>  <SCORE.heavy>
14

>  <SCORE.norm>
0.535193

$$$$
ligand.pdb
  rDOCK(R)          3D
libRbt.so/2013.1/901 2013/11/27
 14 14  0  0  0  0  0  0  0  0999 V2000
   21.2718   -9.9165   -7.4711 C   0  0  0  0  0  0
   14.2773   -6.4352   -9.0089 C   0  0  0  0  0  0
   20.6093   -8.6676   -8.0298 C   0  0  0  0  0  0
   19.0846   -8.7647   -8.0664 C   0  0  0  0  0  0
   17.1279   -7.4554   -8.7727 C   0  0  0  0  0  0
   15.4089   -5.7437   -9.4254 C   0  0  0  0  0  0
   15.2602   -4.4976  -10.0173 C   0  0  0  0  0  0
   13.9970   -3.9471  -10.1754 C   0  0  0  0  0  0
   12.8790   -4.6426   -9.7737 C   0  0  0  0  0  0
   13.0187   -5.8784   -9.1880 C   0  0  0  0  0  0
   18.4676   -7.5812   -8.6404 N   0  0  0  0  0  0
   16.7246   -6.2499   -9.2911 N   0  0  0  0  0  0
   16.3401   -8.3578   -8.4606 O   0  0  0  0  0  0
   20.9799   -7.5336   -7.2565 O   0  0  0  0  0  0
  2 10  2  0  0  0
  2  6  1  0  0  0
  3  4  1  0  0  0
  3  1  1  0  0  0
  4 11  1  0  0  0
  5 11  1  0  0  0
  5 12  1  0  0  0
  6  7  2  0  0  0
  7  8  1  0  0  0
  9  8  2  0  0  0
 10  9  1  0  0  0
 12  6  1  0  0  0
 13  5  2  0  0  0
 14  3  1  0  0  0
M  END
>  <CHROM.1>
-178.22306808,179.83718357,0.89274488,16.94782574,-6.91433825,-8.77700758
0.55337247,0.12213715,2.85196579

>  <Name>
ligand.pdb

>  <RI>
2.24188e+07

>  <Rbt.Current_Directory>
/home/v/Downloads/rDock_2013.1_src/bin

>  <Rbt.Executable>
rbdock ($Id: //depot/dev/client3/rdock/2013.1/src/exe/rbdock.cxx#4 $)

>  <Rbt.Library>
libRbt.so (2013.1, Build901 2013/11/27)

>  <Rbt.Parameter_File>
/home/v/Downloads/rDock_2013.1_src/data/scripts/dock_solv.prm

>  <Rbt.Receptor>
/home/v/Desktop/r.prm

>  <SCORE>
7.49245

>  <SCORE.INTER>
8.4

>  <SCORE.INTER.CONST>
1

>  <SCORE.INTER.POLAR>
0

>  <SCORE.INTER.ROT>
3

>  <SCORE.INTER.SOLV>
0

>  <SCORE.INTER.VDW>
0

>  <SCORE.INTER.norm>
0.6

>  <SCORE.INTRA>
-0.907551

>  <SCORE.INTRA.DIHEDRAL>
-1.60899

>  <SCORE.INTRA.DIHEDRAL.0>
1.6411

>  <SCORE.INTRA.POLAR>
0

>  <SCORE.INTRA.POLAR.0>
0

>  <SCORE.INTRA.REPUL>
0

>  <SCORE.INTRA.REPUL.0>
0

>  <SCORE.INTRA.SOLV>
-0.295715

>  <SCORE.INTRA.SOLV.lig_0>
-16.0602

>  <SCORE.INTRA.VDW>
0.0447994

>  <SCORE.INTRA.VDW.0>
-0.639572

>  <SCORE.INTRA.norm>
-0.0648251

>  <SCORE.RESTR>
0

>  <SCORE.RESTR.CAVITY>
0

>  <SCORE.RESTR.norm>
0

>  <SCORE.SYSTEM>
0

>  <SCORE.SYSTEM.CONST>
0

>  <SCORE.SYSTEM.DIHEDRAL>
0

>  <SCORE.SYSTEM.SOLV>
0

>  <SCORE.SYSTEM.norm>
0

>  <SCORE.heavy>
14

>  <SCORE.norm>
0.535175

$$$$
ligand.pdb
  rDOCK(R)          3D
libRbt.so/2013.1/901 2013/11/27
 14 14  0  0  0  0  0  0  0  0999 V2000
   13.6194   -5.2750  -16.7603 C   0  0  0  0  0  0
   12.0223   -7.5178   -9.2892 C   0  0  0  0  0  0
   12.5034   -5.5888  -15.7770 C   0  0  0  0  0  0
   13.0188   -6.0713  -14.4215 C   0  0  0  0  0  0
   12.1706   -6.8346  -12.2444 C   0  0  0  0  0  0
   10.9245   -7.3539  -10.1259 C   0  0  0  0  0  0
    9.6485   -7.5266   -9.6089 C   0  0  0  0  0  0
    9.4759   -7.8442   -8.2697 C   0  0  0  0  0  0
   10.5674   -8.0190   -7.4492 C   0  0  0  0  0  0
   11.8344   -7.8511   -7.9550 C   0  0  0  0  0  0
   11.9413   -6.3825  -13.4978 N   0  0  0  0  0  0
   11.0338   -7.0289  -11.4997 N   0  0  0  0  0  0
   13.3097   -7.0611  -11.8159 O   0  0  0  0  0  0
   11.6930   -4.4378  -15.5781 O   0  0  0  0  0  0
  2 10  2  0  0  0
  2  6  1  0  0  0
  3  4  1  0  0  0
  3  1  1  0  0  0
  4 11  1  0  0  0
  5 11  1  0  0  0
  5 12  1  0  0  0
  6  7  2  0  0  0
  7  8  1  0  0  0
  9  8  2  0  0  0
 10  9  1  0  0  0
 12  6  1  0  0  0
 13  5  2  0  0  0
 14  3  1  0  0  0
M  END
>  <CHROM.1>
-179.30915563,179.57588207,0.68983815,11.74906581,-6.71551795,-11.87718654
-1.29949616,-0.16704228,1.94241284

>  <Name>
ligand.pdb

>  <RI>
2.24188e+07

>  <Rbt.Current_Directory>
/home/v/Downloads/rDock_2013.1_src/bin

>  <Rbt.Executable>
rbdock ($Id: //depot/dev/client3/rdock/2013.1/src/exe/rbdock.cxx#4 $)

>  <Rbt.Library>
libRbt.so (2013.1, Build901 2013/11/27)

>  <Rbt.Parameter_File>
/home/v/Downloads/rDock_2013.1_src/data/scripts/dock_solv.prm

>  <Rbt.Receptor>
/home/v/Desktop/r.prm

>  <SCORE>
7.49263

>  <SCORE.INTER>
8.4

>  <SCORE.INTER.CONST>
1

>  <SCORE.INTER.POLAR>
0

>  <SCORE.INTER.ROT>
3

>  <SCORE.INTER.SOLV>
0

>  <SCORE.INTER.VDW>
0

>  <SCORE.INTER.norm>
0.6

>  <SCORE.INTRA>
-0.907371

>  <SCORE.INTRA.DIHEDRAL>
-1.62029

>  <SCORE.INTRA.DIHEDRAL.0>
1.6411

>  <SCORE.INTRA.POLAR>
0

>  <SCORE.INTRA.POLAR.0>
0

>  <SCORE.INTRA.REPUL>
0

>  <SCORE.INTRA.REPUL.0>
0

>  <SCORE.INTRA.SOLV>
-0.291239

>  <SCORE.INTRA.SOLV.lig_0>
-16.0602

>  <SCORE.INTRA.VDW>
0.0483909

>  <SCORE.INTRA.VDW.0>
-0.639572

>  <SCORE.INTRA.norm>
-0.0648122

>  <SCORE.RESTR>
0

>  <SCORE.RESTR.CAVITY>
0

>  <SCORE.RESTR.norm>
0

>  <SCORE.SYSTEM>
0

>  <SCORE.SYSTEM.CONST>
0

>  <SCORE.SYSTEM.DIHEDRAL>
0

>  <SCORE.SYSTEM.SOLV>
0

>  <SCORE.SYSTEM.norm>
0

>  <SCORE.heavy>
14

>  <SCORE.norm>
0.535188

$$$$
ligand.pdb
  rDOCK(R)          3D
libRbt.so/2013.1/901 2013/11/27
 14 14  0  0  0  0  0  0  0  0999 V2000
   12.0648  -13.6812  -10.9129 C   0  0  0  0  0  0
   15.8500  -10.4181   -4.7128 C   0  0  0  0  0  0
   13.3675  -13.6658  -10.1296 C   0  0  0  0  0  0
   13.3748  -12.6351   -9.0013 C   0  0  0  0  0  0
   14.8628  -11.7709   -7.2460 C   0  0  0  0  0  0
   16.5884  -11.3124   -5.4789 C   0  0  0  0  0  0
   17.8841  -11.6243   -5.0928 C   0  0  0  0  0  0
   18.4255  -11.0592   -3.9476 C   0  0  0  0  0  0
   17.6944  -10.1634   -3.2006 C   0  0  0  0  0  0
   16.4107   -9.8486   -3.5781 C   0  0  0  0  0  0
   14.6361  -12.6115   -8.2804 N   0  0  0  0  0  0
   16.0930  -11.9236   -6.6563 N   0  0  0  0  0  0
   14.0317  -10.9316   -6.8752 O   0  0  0  0  0  0
   13.6190  -14.9524   -9.5795 O   0  0  0  0  0  0
  2 10  2  0  0  0
  2  6  1  0  0  0
  3  4  1  0  0  0
  3  1  1  0  0  0
  4 11  1  0  0  0
  5 11  1  0  0  0
  5 12  1  0  0  0
  6  7  2  0  0  0
  7  8  1  0  0  0
  9  8  2  0  0  0
 10  9  1  0  0  0
 12  6  1  0  0  0
 13  5  2  0  0  0
 14  3  1  0  0  0
M  END
>  <CHROM.1>
-178.73879861,179.76173195,-0.04427539,15.25378295,-11.96258569,-6.87640640
2.22932031,0.49498322,-2.41081788

>  <Name>
ligand.pdb

>  <RI>
2.24188e+07

>  <Rbt.Current_Directory>
/home/v/Downloads/rDock_2013.1_src/bin

>  <Rbt.Executable>
rbdock ($Id: //depot/dev/client3/rdock/2013.1/src/exe/rbdock.cxx#4 $)

>  <Rbt.Library>
libRbt.so (2013.1, Build901 2013/11/27)

>  <Rbt.Parameter_File>
/home/v/Downloads/rDock_2013.1_src/data/scripts/dock_solv.prm

>  <Rbt.Receptor>
/home/v/Desktop/r.prm

>  <SCORE>
7.49234

>  <SCORE.INTER>
8.4

>  <SCORE.INTER.CONST>
1

>  <SCORE.INTER.POLAR>
0

>  <SCORE.INTER.ROT>
3

>  <SCORE.INTER.SOLV>
0

>  <SCORE.INTER.VDW>
0

>  <SCORE.INTER.norm>
0.6

>  <SCORE.INTRA>
-0.907661

>  <SCORE.INTRA.DIHEDRAL>
-1.61776

>  <SCORE.INTRA.DIHEDRAL.0>
1.6411

>  <SCORE.INTRA.POLAR>
0

>  <SCORE.INTRA.POLAR.0>
0

>  <SCORE.INTRA.REPUL>
0

>  <SCORE.INTRA.REPUL.0>
0

>  <SCORE.INTRA.SOLV>
-0.293533

>  <SCORE.INTRA.SOLV.lig_0>
-16.0602

>  <SCORE.INTRA.VDW>
0.0479854

>  <SCORE.INTRA.VDW.0>
-0.639572

>  <SCORE.INTRA.norm>
-0.0648329

>  <SCORE.RESTR>
0

>  <SCORE.RESTR.CAVITY>
0

>  <SCORE.RESTR.norm>
0

>  <SCORE.SYSTEM>
0

>  <SCORE.SYSTEM.CONST>
0

>  <SCORE.SYSTEM.DIHEDRAL>
0

>  <SCORE.SYSTEM.SOLV>
0

>  <SCORE.SYSTEM.norm>
0

>  <SCORE.heavy>
14

>  <SCORE.norm>
0.535167

$$$$
ligand.pdb
  rDOCK(R)          3D
libRbt.so/2013.1/901 2013/11/27
 14 14  0  0  0  0  0  0  0  0999 V2000
   16.1722  -11.3875   -4.0398 C   0  0  0  0  0  0
   15.5550  -13.1292  -11.7853 C   0  0  0  0  0  0
   16.9565  -11.7406   -5.2932 C   0  0  0  0  0  0
   16.0610  -12.0331   -6.4966 C   0  0  0  0  0  0
   16.2311  -12.7020   -8.8557 C   0  0  0  0  0  0
   16.8343  -13.1896  -11.2451 C   0  0  0  0  0  0
   17.9061  -13.4824  -12.0762 C   0  0  0  0  0  0
   17.6997  -13.6964  -13.4310 C   0  0  0  0  0  0
   16.4288  -13.6491  -13.9578 C   0  0  0  0  0  0
   15.3621  -13.3613  -13.1400 C   0  0  0  0  0  0
   16.8227  -12.4017   -7.6776 N   0  0  0  0  0  0
   17.1109  -12.9798   -9.8723 N   0  0  0  0  0  0
   15.0014  -12.7318   -8.9951 O   0  0  0  0  0  0
   17.8433  -10.6806   -5.6263 O   0  0  0  0  0  0
  2 10  2  0  0  0
  2  6  1  0  0  0
  3  4  1  0  0  0
  3  1  1  0  0  0
  4 11  1  0  0  0
  5 11  1  0  0  0
  5 12  1  0  0  0
  6  7  2  0  0  0
  7  8  1  0  0  0
  9  8  2  0  0  0
 10  9  1  0  0  0
 12  6  1  0  0  0
 13  5  2  0  0  0
 14  3  1  0  0  0
M  END
>  <CHROM.1>
-178.54156813,-179.98815307,0.52430645,16.56335288,-12.60575038,-9.31044742
1.55664277,0.10932863,1.31217567

>  <Name>
ligand.pdb

>  <RI>
2.24188e+07

>  <Rbt.Current_Directory>
/home/v/Downloads/rDock_2013.1_src/bin

>  <Rbt.Executable>
rbdock ($Id: //depot/dev/client3/rdock/2013.1/src/exe/rbdock.cxx#4 $)

>  <Rbt.Library>
libRbt.so (2013.1, Build901 2013/11/27)

>  <Rbt.Parameter_File>
/home/v/Downloads/rDock_2013.1_src/data/scripts/dock_solv.prm

>  <Rbt.Receptor>
/home/v/Desktop/r.prm

>  <SCORE>
7.49211

>  <SCORE.INTER>
8.4

>  <SCORE.INTER.CONST>
1

>  <SCORE.INTER.POLAR>
0

>  <SCORE.INTER.ROT>
3

>  <SCORE.INTER.SOLV>
0

>  <SCORE.INTER.VDW>
0

>  <SCORE.INTER.norm>
0.6

>  <SCORE.INTRA>
-0.907887

>  <SCORE.INTRA.DIHEDRAL>
-1.61446

>  <SCORE.INTRA.DIHEDRAL.0>
1.6411

>  <SCORE.INTRA.POLAR>
0

>  <SCORE.INTRA.POLAR.0>
0

>  <SCORE.INTRA.REPUL>
0

>  <SCORE.INTRA.REPUL.0>
0

>  <SCORE.INTRA.SOLV>
-0.294057

>  <SCORE.INTRA.SOLV.lig_0>
-16.0602

>  <SCORE.INTRA.VDW>
0.0463716

>  <SCORE.INTRA.VDW.0>
-0.639572

>  <SCORE.INTRA.norm>
-0.0648491

>  <SCORE.RESTR>
0

>  <SCORE.RESTR.CAVITY>
0

>  <SCORE.RESTR.norm>
0

>  <SCORE.SYSTEM>
0

>  <SCORE.SYSTEM.CONST>
0

>  <SCORE.SYSTEM.DIHEDRAL>
0

>  <SCORE.SYSTEM.SOLV>
0

>  <SCORE.SYSTEM.norm>
0

>  <SCORE.heavy>
14

>  <SCORE.norm>
0.535151

$$$$
ligand.pdb
  rDOCK(R)          3D
libRbt.so/2013.1/901 2013/11/27
 14 14  0  0  0  0  0  0  0  0999 V2000
   19.6339  -13.0838  -11.3087 C   0  0  0  0  0  0
   15.0518   -7.1499   -8.6254 C   0  0  0  0  0  0
   19.1214  -12.3870  -10.0588 C   0  0  0  0  0  0
   18.2476  -11.1716  -10.3673 C   0  0  0  0  0  0
   17.0275   -9.3824   -9.2047 C   0  0  0  0  0  0
   15.7537   -7.8639   -7.6612 C   0  0  0  0  0  0
   15.5807   -7.5425   -6.3225 C   0  0  0  0  0  0
   14.7057   -6.5307   -5.9558 C   0  0  0  0  0  0
   14.0238   -5.8178   -6.9159 C   0  0  0  0  0  0
   14.1917   -6.1296   -8.2441 C   0  0  0  0  0  0
   17.7974  -10.4930   -9.1640 N   0  0  0  0  0  0
   16.6595   -8.9075   -7.9703 N   0  0  0  0  0  0
   16.6957   -8.8403  -10.2671 O   0  0  0  0  0  0
   18.3757  -13.3002   -9.2644 O   0  0  0  0  0  0
  2 10  2  0  0  0
  2  6  1  0  0  0
  3  4  1  0  0  0
  3  1  1  0  0  0
  4 11  1  0  0  0
  5 11  1  0  0  0
  5 12  1  0  0  0
  6  7  2  0  0  0
  7  8  1  0  0  0
  9  8  2  0  0  0
 10  9  1  0  0  0
 12  6  1  0  0  0
 13  5  2  0  0  0
 14  3  1  0  0  0
M  END
>  <CHROM.1>
-178.31049324,179.10176222,1.29025862,16.71028981,-9.30730740,-8.73898987
0.21138089,0.99785844,-1.33347001

>  <Name>
ligand.pdb

>  <RI>
2.24188e+07

>  <Rbt.Current_Directory>
/home/v/Downloads/rDock_2013.1_src/bin

>  <Rbt.Executable>
rbdock ($Id: //depot/dev/client3/rdock/2013.1/src/exe/rbdock.cxx#4 $)

>  <Rbt.Library>
libRbt.so (2013.1, Build901 2013/11/27)

>  <Rbt.Parameter_File>
/home/v/Downloads/rDock_2013.1_src/data/scripts/dock_solv.prm

>  <Rbt.Receptor>
/home/v/Desktop/r.prm

>  <SCORE>
7.49253

>  <SCORE.INTER>
8.4

>  <SCORE.INTER.CONST>
1

>  <SCORE.INTER.POLAR>
0

>  <SCORE.INTER.ROT>
3

>  <SCORE.INTER.SOLV>
0

>  <SCORE.INTER.VDW>
0

>  <SCORE.INTER.norm>
0.6

>  <SCORE.INTRA>
-0.907466

>  <SCORE.INTRA.DIHEDRAL>
-1.60731

>  <SCORE.INTRA.DIHEDRAL.0>
1.6411

>  <SCORE.INTRA.POLAR>
0

>  <SCORE.INTRA.POLAR.0>
0

>  <SCORE.INTRA.REPUL>
0

>  <SCORE.INTRA.REPUL.0>
0

>  <SCORE.INTRA.SOLV>
-0.296314

>  <SCORE.INTRA.SOLV.lig_0>
-16.0602

>  <SCORE.INTRA.VDW>
0.0443464

>  <SCORE.INTRA.VDW.0>
-0.639572

>  <SCORE.INTRA.norm>
-0.064819

>  <SCORE.RESTR>
0

>  <SCORE.RESTR.CAVITY>
0

>  <SCORE.RESTR.norm>
0

>  <SCORE.SYSTEM>
0

>  <SCORE.SYSTEM.CONST>
0

>  <SCORE.SYSTEM.DIHEDRAL>
0

>  <SCORE.SYSTEM.SOLV>
0

>  <SCORE.SYSTEM.norm>
0

>  <SCORE.heavy>
14

>  <SCORE.norm>
0.535181

$$$$
ligand.pdb
  rDOCK(R)          3D
libRbt.so/2013.1/901 2013/11/27
 14 14  0  0  0  0  0  0  0  0999 V2000
   16.4742   -8.2940  -15.8857 C   0  0  0  0  0  0
   14.8356   -9.0102   -8.1260 C   0  0  0  0  0  0
   16.7021   -9.1483  -14.6492 C   0  0  0  0  0  0
   16.0578   -8.5650  -13.3921 C   0  0  0  0  0  0
   15.8496   -9.0348  -10.9884 C   0  0  0  0  0  0
   15.6915   -9.9661   -8.6607 C   0  0  0  0  0  0
   16.1543  -10.9902   -7.8470 C   0  0  0  0  0  0
   15.7529  -11.0629   -6.5213 C   0  0  0  0  0  0
   14.9162  -10.1055   -5.9935 C   0  0  0  0  0  0
   14.4552   -9.0872   -6.7935 C   0  0  0  0  0  0
   16.3038   -9.3794  -12.2144 N   0  0  0  0  0  0
   16.1366   -9.9485  -10.0049 N   0  0  0  0  0  0
   15.2375   -7.9797  -10.7772 O   0  0  0  0  0  0
   16.1918  -10.4580  -14.8626 O   0  0  0  0  0  0
  2 10  2  0  0  0
  2  6  1  0  0  0
  3  4  1  0  0  0
  3  1  1  0  0  0
  4 11  1  0  0  0
  5 11  1  0  0  0
  5 12  1  0  0  0
  6  7  2  0  0  0
  7  8  1  0  0  0
  9  8  2  0  0  0
 10  9  1  0  0  0
 12  6  1  0  0  0
 13  5  2  0  0  0
 14  3  1  0  0  0
M  END
>  <CHROM.1>
-178.97626554,178.57505692,0.94401958,15.78043989,-9.47729762,-10.63847323
1.21879804,1.14511273,-1.11956173

>  <Name>
ligand.pdb

>  <RI>
2.24188e+07

>  <Rbt.Current_Directory>
/home/v/Downloads/rDock_2013.1_src/bin

>  <Rbt.Executable>
rbdock ($Id: //depot/dev/client3/rdock/2013.1/src/exe/rbdock.cxx#4 $)

>  <Rbt.Library>
libRbt.so (2013.1, Build901 2013/11/27)

>  <Rbt.Parameter_File>
/home/v/Downloads/rDock_2013.1_src/data/scripts/dock_solv.prm

>  <Rbt.Receptor>
/home/v/Desktop/r.prm

>  <SCORE>
7.49248

>  <SCORE.INTER>
8.4

>  <SCORE.INTER.CONST>
1

>  <SCORE.INTER.POLAR>
0

>  <SCORE.INTER.ROT>
3

>  <SCORE.INTER.SOLV>
0

>  <SCORE.INTER.VDW>
0

>  <SCORE.INTER.norm>
0.6

>  <SCORE.INTRA>
-0.907517

>  <SCORE.INTRA.DIHEDRAL>
-1.6153

>  <SCORE.INTRA.DIHEDRAL.0>
1.6411

>  <SCORE.INTRA.POLAR>
0

>  <SCORE.INTRA.POLAR.0>
0

>  <SCORE.INTRA.REPUL>
0

>  <SCORE.INTRA.REPUL.0>
0

>  <SCORE.INTRA.SOLV>
-0.294004

>  <SCORE.INTRA.SOLV.lig_0>
-16.0602

>  <SCORE.INTRA.VDW>
0.0471352

>  <SCORE.INTRA.VDW.0>
-0.639572

>  <SCORE.INTRA.norm>
-0.0648226

>  <SCORE.RESTR>
0

>  <SCORE.RESTR.CAVITY>
0

>  <SCORE.RESTR.norm>
0

>  <SCORE.SYSTEM>
0

>  <SCORE.SYSTEM.CONST>
0

>  <SCORE.SYSTEM.DIHEDRAL>
0

>  <SCORE.SYSTEM.SOLV>
0

>  <SCORE.SYSTEM.norm>
0

>  <SCORE.heavy>
14

>  <SCORE.norm>
0.535177

$$$$
ligand.pdb
  rDOCK(R)          3D
libRbt.so/2013.1/901 2013/11/27
 14 14  0  0  0  0  0  0  0  0999 V2000
   16.7347  -13.8839   -4.6306 C   0  0  0  0  0  0
   20.5612  -13.2025  -11.5801 C   0  0  0  0  0  0
   16.5867  -13.9970   -6.1393 C   0  0  0  0  0  0
   17.8578  -13.6122   -6.8955 C   0  0  0  0  0  0
   18.6855  -13.3819   -9.1984 C   0  0  0  0  0  0
   19.1983  -13.4648  -11.6562 C   0  0  0  0  0  0
   18.6120  -13.6404  -12.9015 C   0  0  0  0  0  0
   19.3837  -13.5687  -14.0518 C   0  0  0  0  0  0
   20.7304  -13.2948  -13.9710 C   0  0  0  0  0  0
   21.3175  -13.1181  -12.7407 C   0  0  0  0  0  0
   17.6881  -13.6828   -8.3367 N   0  0  0  0  0  0
   18.3570  -13.5517  -10.5205 N   0  0  0  0  0  0
   19.7933  -12.9787   -8.8206 O   0  0  0  0  0  0
   16.2244  -15.3251   -6.4939 O   0  0  0  0  0  0
  2 10  2  0  0  0
  2  6  1  0  0  0
  3  4  1  0  0  0
  3  1  1  0  0  0
  4 11  1  0  0  0
  5 11  1  0  0  0
  5 12  1  0  0  0
  6  7  2  0  0  0
  7  8  1  0  0  0
  9  8  2  0  0  0
 10  9  1  0  0  0
 12  6  1  0  0  0
 13  5  2  0  0  0
 14  3  1  0  0  0
M  END
>  <CHROM.1>
-178.11107938,179.88752825,1.25190056,18.63900029,-13.64290990,-9.70308947
-2.04460632,-0.43337796,-1.66704853

>  <Name>
ligand.pdb

>  <RI>
2.24188e+07

>  <Rbt.Current_Directory>
/home/v/Downloads/rDock_2013.1_src/bin

>  <Rbt.Executable>
rbdock ($Id: //depot/dev/client3/rdock/2013.1/src/exe/rbdock.cxx#4 $)

>  <Rbt.Library>
libRbt.so (2013.1, Build901 2013/11/27)

>  <Rbt.Parameter_File>
/home/v/Downloads/rDock_2013.1_src/data/scripts/dock_solv.prm

>  <Rbt.Receptor>
/home/v/Desktop/r.prm

>  <SCORE>
7.49287

>  <SCORE.INTER>
8.4

>  <SCORE.INTER.CONST>
1

>  <SCORE.INTER.POLAR>
0

>  <SCORE.INTER.ROT>
3

>  <SCORE.INTER.SOLV>
0

>  <SCORE.INTER.VDW>
0

>  <SCORE.INTER.norm>
0.6

>  <SCORE.INTRA>
-0.907129

>  <SCORE.INTRA.DIHEDRAL>
-1.60547

>  <SCORE.INTRA.DIHEDRAL.0>
1.6411

>  <SCORE.INTRA.POLAR>
0

>  <SCORE.INTRA.POLAR.0>
0

>  <SCORE.INTRA.REPUL>
0

>  <SCORE.INTRA.REPUL.0>
0

>  <SCORE.INTRA.SOLV>
-0.296154

>  <SCORE.INTRA.SOLV.lig_0>
-16.0602

>  <SCORE.INTRA.VDW>
0.0436844

>  <SCORE.INTRA.VDW.0>
-0.639572

>  <SCORE.INTRA.norm>
-0.0647949

>  <SCORE.RESTR>
0

>  <SCORE.RESTR.CAVITY>
0

>  <SCORE.RESTR.norm>
0

>  <SCORE.SYSTEM>
0

>  <SCORE.SYSTEM.CONST>
0

>  <SCORE.SYSTEM.DIHEDRAL>
0

>  <SCORE.SYSTEM.SOLV>
0

>  <SCORE.SYSTEM.norm>
0

>  <SCORE.heavy>
14

>  <SCORE.norm>
0.535205

$$$$
ligand.pdb
  rDOCK(R)          3D
libRbt.so/2013.1/901 2013/11/27
 14 14  0  0  0  0  0  0  0  0999 V2000
    9.4949  -10.6450  -15.4596 C   0  0  0  0  0  0
   14.4881  -11.6332   -9.3362 C   0  0  0  0  0  0
    9.6583  -10.4722  -13.9582 C   0  0  0  0  0  0
   10.9940  -11.0012  -13.4371 C   0  0  0  0  0  0
   12.2222  -11.2674  -11.3246 C   0  0  0  0  0  0
   13.2147  -11.1754   -9.0188 C   0  0  0  0  0  0
   12.9152  -10.8710   -7.6986 C   0  0  0  0  0  0
   13.8827  -11.0094   -6.7144 C   0  0  0  0  0  0
   15.1379  -11.4765   -7.0325 C   0  0  0  0  0  0
   15.4411  -11.7816   -8.3381 C   0  0  0  0  0  0
   11.1215  -10.8613  -11.9966 N   0  0  0  0  0  0
   12.1845  -11.0115   -9.9764 N   0  0  0  0  0  0
   13.1734  -11.8300  -11.8825 O   0  0  0  0  0  0
    9.5404   -9.0985  -13.6114 O   0  0  0  0  0  0
  2 10  2  0  0  0
  2  6  1  0  0  0
  3  4  1  0  0  0
  3  1  1  0  0  0
  4 11  1  0  0  0
  5 11  1  0  0  0
  5 12  1  0  0  0
  6  7  2  0  0  0
  7  8  1  0  0  0
  9  8  2  0  0  0
 10  9  1  0  0  0
 12  6  1  0  0  0
 13  5  2  0  0  0
 14  3  1  0  0  0
M  END
>  <CHROM.1>
-178.48850716,179.84981272,0.74562547,12.30942990,-10.98569773,-10.83594858
-2.28969823,-0.53325569,1.31236794

>  <Name>
ligand.pdb

>  <RI>
2.24188e+07

>  <Rbt.Current_Directory>
/home/v/Downloads/rDock_2013.1_src/bin

>  <Rbt.Executable>
rbdock ($Id: //depot/dev/client3/rdock/2013.1/src/exe/rbdock.cxx#4 $)

>  <Rbt.Library>
libRbt.so (2013.1, Build901 2013/11/27)

>  <Rbt.Parameter_File>
/home/v/Downloads/rDock_2013.1_src/data/scripts/dock_solv.prm

>  <Rbt.Receptor>
/home/v/Desktop/r.prm

>  <SCORE>
7.49208

>  <SCORE.INTER>
8.4

>  <SCORE.INTER.CONST>
1

>  <SCORE.INTER.POLAR>
0

>  <SCORE.INTER.ROT>
3

>  <SCORE.INTER.SOLV>
0

>  <SCORE.INTER.VDW>
0

>  <SCORE.INTER.norm>
0.6

>  <SCORE.INTRA>
-0.907925

>  <SCORE.INTRA.DIHEDRAL>
-1.613

>  <SCORE.INTRA.DIHEDRAL.0>
1.6411

>  <SCORE.INTRA.POLAR>
0

>  <SCORE.INTRA.POLAR.0>
0

>  <SCORE.INTRA.REPUL>
0

>  <SCORE.INTRA.REPUL.0>
0

>  <SCORE.INTRA.SOLV>
-0.294515

>  <SCORE.INTRA.SOLV.lig_0>
-16.0602

>  <SCORE.INTRA.VDW>
0.0458344

>  <SCORE.INTRA.VDW.0>
-0.639572

>  <SCORE.INTRA.norm>
-0.0648518

>  <SCORE.RESTR>
0

>  <SCORE.RESTR.CAVITY>
0

>  <SCORE.RESTR.norm>
0

>  <SCORE.SYSTEM>
0

>  <SCORE.SYSTEM.CONST>
0

>  <SCORE.SYSTEM.DIHEDRAL>
0

>  <SCORE.SYSTEM.SOLV>
0

>  <SCORE.SYSTEM.norm>
0

>  <SCORE.heavy>
14

>  <SCORE.norm>
0.535148

$$$$
ligand.pdb
  rDOCK(R)          3D
libRbt.so/2013.1/901 2013/11/27
 14 14  0  0  0  0  0  0  0  0999 V2000
   14.1753   -5.2912   -8.1046 C   0  0  0  0  0  0
   15.4797  -13.0229   -6.7223 C   0  0  0  0  0  0
   15.1054   -6.4583   -8.3936 C   0  0  0  0  0  0
   14.7137   -7.7340   -7.6487 C   0  0  0  0  0  0
   15.4774  -10.0505   -7.3451 C   0  0  0  0  0  0
   16.4542  -12.3620   -7.4608 C   0  0  0  0  0  0
   17.5399  -13.0792   -7.9427 C   0  0  0  0  0  0
   17.6387  -14.4413   -7.7002 C   0  0  0  0  0  0
   16.6776  -15.0878   -6.9563 C   0  0  0  0  0  0
   15.6002  -14.3832   -6.4744 C   0  0  0  0  0  0
   15.6304   -8.8309   -7.9083 N   0  0  0  0  0  0
   16.4106  -10.9752   -7.7435 N   0  0  0  0  0  0
   14.5770  -10.3012   -6.5333 O   0  0  0  0  0  0
   15.1270   -6.7285   -9.7892 O   0  0  0  0  0  0
  2 10  2  0  0  0
  2  6  1  0  0  0
  3  4  1  0  0  0
  3  1  1  0  0  0
  4 11  1  0  0  0
  5 11  1  0  0  0
  5 12  1  0  0  0
  6  7  2  0  0  0
  7  8  1  0  0  0
  9  8  2  0  0  0
 10  9  1  0  0  0
 12  6  1  0  0  0
 13  5  2  0  0  0
 14  3  1  0  0  0
M  END
>  <CHROM.1>
-178.55210308,179.60783678,1.72673548,15.70774414,-10.47389173,-7.64947572
1.89891364,0.74062078,-0.39678095

>  <Name>
ligand.pdb

>  <RI>
2.24188e+07

>  <Rbt.Current_Directory>
/home/v/Downloads/rDock_2013.1_src/bin

>  <Rbt.Executable>
rbdock ($Id: //depot/dev/client3/rdock/2013.1/src/exe/rbdock.cxx#4 $)

>  <Rbt.Library>
libRbt.so (2013.1, Build901 2013/11/27)

>  <Rbt.Parameter_File>
/home/v/Downloads/rDock_2013.1_src/data/scripts/dock_solv.prm

>  <Rbt.Receptor>
/home/v/Desktop/r.prm

>  <SCORE>
7.49269

>  <SCORE.INTER>
8.4

>  <SCORE.INTER.CONST>
1

>  <SCORE.INTER.POLAR>
0

>  <SCORE.INTER.ROT>
3

>  <SCORE.INTER.SOLV>
0

>  <SCORE.INTER.VDW>
0

>  <SCORE.INTER.norm>
0.6

>  <SCORE.INTRA>
-0.907312

>  <SCORE.INTRA.DIHEDRAL>
-1.60766

>  <SCORE.INTRA.DIHEDRAL.0>
1.6411

>  <SCORE.INTRA.POLAR>
0

>  <SCORE.INTRA.POLAR.0>
0

>  <SCORE.INTRA.REPUL>
0

>  <SCORE.INTRA.REPUL.0>
0

>  <SCORE.INTRA.SOLV>
-0.294593

>  <SCORE.INTRA.SOLV.lig_0>
-16.0602

>  <SCORE.INTRA.VDW>
0.0438127

>  <SCORE.INTRA.VDW.0>
-0.639572

>  <SCORE.INTRA.norm>
-0.064808

>  <SCORE.RESTR>
0

>  <SCORE.RESTR.CAVITY>
0

>  <SCORE.RESTR.norm>
0

>  <SCORE.SYSTEM>
0

>  <SCORE.SYSTEM.CONST>
0

>  <SCORE.SYSTEM.DIHEDRAL>
0

>  <SCORE.SYSTEM.SOLV>
0

>  <SCORE.SYSTEM.norm>
0

>  <SCORE.heavy>
14

>  <SCORE.norm>
0.535192

$$$$
ligand.pdb
  rDOCK(R)          3D
libRbt.so/2013.1/901 2013/11/27
 14 14  0  0  0  0  0  0  0  0999 V2000
   13.7136  -13.7766  -10.8408 C   0  0  0  0  0  0
   16.2478   -6.4469   -9.0375 C   0  0  0  0  0  0
   13.2800  -12.3325  -10.6477 C   0  0  0  0  0  0
   14.4201  -11.4211  -10.1948 C   0  0  0  0  0  0
   14.8294   -9.0770   -9.5790 C   0  0  0  0  0  0
   14.8786   -6.5898   -9.2298 C   0  0  0  0  0  0
   14.0644   -5.4688   -9.1535 C   0  0  0  0  0  0
   14.6170   -4.2215   -8.9030 C   0  0  0  0  0  0
   15.9720   -4.0882   -8.6996 C   0  0  0  0  0  0
   16.7843   -5.1947   -8.7721 C   0  0  0  0  0  0
   13.9860  -10.0493   -9.9927 N   0  0  0  0  0  0
   14.2540   -7.8337   -9.4898 N   0  0  0  0  0  0
   16.0143   -9.2985   -9.2968 O   0  0  0  0  0  0
   12.7360  -11.8224  -11.8581 O   0  0  0  0  0  0
  2 10  2  0  0  0
  2  6  1  0  0  0
  3  4  1  0  0  0
  3  1  1  0  0  0
  4 11  1  0  0  0
  5 11  1  0  0  0
  5 12  1  0  0  0
  6  7  2  0  0  0
  7  8  1  0  0  0
  9  8  2  0  0  0
 10  9  1  0  0  0
 12  6  1  0  0  0
 13  5  2  0  0  0
 14  3  1  0  0  0
M  END
>  <CHROM.1>
-179.03097852,179.34169279,1.08561718,14.67021597,-8.55297252,-9.73840283
-1.84198228,-0.36577034,0.16397662

>  <Name>
ligand.pdb

>  <RI>
2.24188e+07

>  <Rbt.Current_Directory>
/home/v/Downloads/rDock_2013.1_src/bin

>  <Rbt.Executable>
rbdock ($Id: //depot/dev/client3/rdock/2013.1/src/exe/rbdock.cxx#4 $)

>  <Rbt.Library>
libRbt.so (2013.1, Build901 2013/11/27)

>  <Rbt.Parameter_File>
/home/v/Downloads/rDock_2013.1_src/data/scripts/dock_solv.prm

>  <Rbt.Receptor>
/home/v/Desktop/r.prm

>  <SCORE>
7.49225

>  <SCORE.INTER>
8.4

>  <SCORE.INTER.CONST>
1

>  <SCORE.INTER.POLAR>
0

>  <SCORE.INTER.ROT>
3

>  <SCORE.INTER.SOLV>
0

>  <SCORE.INTER.VDW>
0

>  <SCORE.INTER.norm>
0.6

>  <SCORE.INTRA>
-0.907752

>  <SCORE.INTRA.DIHEDRAL>
-1.61631

>  <SCORE.INTRA.DIHEDRAL.0>
1.6411

>  <SCORE.INTRA.POLAR>
0

>  <SCORE.INTRA.POLAR.0>
0

>  <SCORE.INTRA.REPUL>
0

>  <SCORE.INTRA.REPUL.0>
0

>  <SCORE.INTRA.SOLV>
-0.292788

>  <SCORE.INTRA.SOLV.lig_0>
-16.0602

>  <SCORE.INTRA.VDW>
0.0467983

>  <SCORE.INTRA.VDW.0>
-0.639572

>  <SCORE.INTRA.norm>
-0.0648394

>  <SCORE.RESTR>
0

>  <SCORE.RESTR.CAVITY>
0

>  <SCORE.RESTR.norm>
0

>  <SCORE.SYSTEM>
0

>  <SCORE.SYSTEM.CONST>
0

>  <SCORE.SYSTEM.DIHEDRAL>
0

>  <SCORE.SYSTEM.SOLV>
0

>  <SCORE.SYSTEM.norm>
0

>  <SCORE.heavy>
14

>  <SCORE.norm>
0.535161

$$$$
ligand.pdb
  rDOCK(R)          3D
libRbt.so/2013.1/901 2013/11/27
 14 14  0  0  0  0  0  0  0  0999 V2000
   18.5548  -11.8651   -7.2659 C   0  0  0  0  0  0
   12.2079   -8.2207  -10.4040 C   0  0  0  0  0  0
   17.5674  -11.8823   -8.4215 C   0  0  0  0  0  0
   16.4856  -10.8097   -8.2999 C   0  0  0  0  0  0
   14.4897  -10.0016   -9.4853 C   0  0  0  0  0  0
   12.6650   -9.3447  -11.0820 C   0  0  0  0  0  0
   12.0432   -9.7206  -12.2641 C   0  0  0  0  0  0
   10.9890   -8.9719  -12.7661 C   0  0  0  0  0  0
   10.5317   -7.8677  -12.0830 C   0  0  0  0  0  0
   11.1419   -7.4905  -10.9104 C   0  0  0  0  0  0
   15.5434  -10.8450   -9.4053 N   0  0  0  0  0  0
   13.7361  -10.1494  -10.6232 N   0  0  0  0  0  0
   14.2278   -9.1770   -8.5999 O   0  0  0  0  0  0
   18.2564  -11.7037   -9.6522 O   0  0  0  0  0  0
  2 10  2  0  0  0
  2  6  1  0  0  0
  3  4  1  0  0  0
  3  1  1  0  0  0
  4 11  1  0  0  0
  5 11  1  0  0  0
  5 12  1  0  0  0
  6  7  2  0  0  0
  7  8  1  0  0  0
  9  8  2  0  0  0
 10  9  1  0  0  0
 12  6  1  0  0  0
 13  5  2  0  0  0
 14  3  1  0  0  0
M  END
>  <CHROM.1>
-179.53922370,178.64052005,0.44103811,14.30822614,-9.91348092,-10.01811167
0.20283874,-0.59129487,1.10056400

>  <Name>
ligand.pdb

>  <RI>
2.24188e+07

>  <Rbt.Current_Directory>
/home/v/Downloads/rDock_2013.1_src/bin

>  <Rbt.Executable>
rbdock ($Id: //depot/dev/client3/rdock/2013.1/src/exe/rbdock.cxx#4 $)

>  <Rbt.Library>
libRbt.so (2013.1, Build901 2013/11/27)

>  <Rbt.Parameter_File>
/home/v/Downloads/rDock_2013.1_src/data/scripts/dock_solv.prm

>  <Rbt.Receptor>
/home/v/Desktop/r.prm

>  <SCORE>
7.49363

>  <SCORE.INTER>
8.4

>  <SCORE.INTER.CONST>
1

>  <SCORE.INTER.POLAR>
0

>  <SCORE.INTER.ROT>
3

>  <SCORE.INTER.SOLV>
0

>  <SCORE.INTER.VDW>
0

>  <SCORE.INTER.norm>
0.6

>  <SCORE.INTRA>
-0.90637

>  <SCORE.INTRA.DIHEDRAL>
-1.62092

>  <SCORE.INTRA.DIHEDRAL.0>
1.6411

>  <SCORE.INTRA.POLAR>
0

>  <SCORE.INTRA.POLAR.0>
0

>  <SCORE.INTRA.REPUL>
0

>  <SCORE.INTRA.REPUL.0>
0

>  <SCORE.INTRA.SOLV>
-0.291415

>  <SCORE.INTRA.SOLV.lig_0>
-16.0602

>  <SCORE.INTRA.VDW>
0.049799

>  <SCORE.INTRA.VDW.0>
-0.639572

>  <SCORE.INTRA.norm>
-0.0647407

>  <SCORE.RESTR>
0

>  <SCORE.RESTR.CAVITY>
0

>  <SCORE.RESTR.norm>
0

>  <SCORE.SYSTEM>
0

>  <SCORE.SYSTEM.CONST>
0

>  <SCORE.SYSTEM.DIHEDRAL>
0

>  <SCORE.SYSTEM.SOLV>
0

>  <SCORE.SYSTEM.norm>
0

>  <SCORE.heavy>
14

>  <SCORE.norm>
0.535259

$$$$
ligand.pdb
  rDOCK(R)          3D
libRbt.so/2013.1/901 2013/11/27
 14 14  0  0  0  0  0  0  0  0999 V2000
   13.7663  -10.0531   -6.6064 C   0  0  0  0  0  0
   14.8759   -5.2837  -12.8857 C   0  0  0  0  0  0
   14.7225   -9.0638   -7.2526 C   0  0  0  0  0  0
   14.2373   -8.5644   -8.6131 C   0  0  0  0  0  0
   14.9507   -7.0879  -10.4441 C   0  0  0  0  0  0
   15.9279   -5.3569  -11.9802 C   0  0  0  0  0  0
   17.0540   -4.5731  -12.1870 C   0  0  0  0  0  0
   17.1175   -3.7179  -13.2772 C   0  0  0  0  0  0
   16.0784   -3.6599  -14.1783 C   0  0  0  0  0  0
   14.9604   -4.4348  -13.9805 C   0  0  0  0  0  0
   15.1761   -7.6450   -9.2329 N   0  0  0  0  0  0
   15.9237   -6.2078  -10.8483 N   0  0  0  0  0  0
   13.9556   -7.3608  -11.1281 O   0  0  0  0  0  0
   14.9187   -7.9467   -6.3955 O   0  0  0  0  0  0
  2 10  2  0  0  0
  2  6  1  0  0  0
  3  4  1  0  0  0
  3  1  1  0  0  0
  4 11  1  0  0  0
  5 11  1  0  0  0
  5 12  1  0  0  0
  6  7  2  0  0  0
  7  8  1  0  0  0
  9  8  2  0  0  0
 10  9  1  0  0  0
 12  6  1  0  0  0
 13  5  2  0  0  0
 14  3  1  0  0  0
M  END
>  <CHROM.1>
-178.61090332,179.58479605,0.66862820,15.21601342,-6.58863792,-10.51940317
1.83776526,0.63405377,2.05892973

>  <Name>
ligand.pdb

>  <RI>
2.24188e+07

>  <Rbt.Current_Directory>
/home/v/Downloads/rDock_2013.1_src/bin

>  <Rbt.Executable>
rbdock ($Id: //depot/dev/client3/rdock/2013.1/src/exe/rbdock.cxx#4 $)

>  <Rbt.Library>
libRbt.so (2013.1, Build901 2013/11/27)

>  <Rbt.Parameter_File>
/home/v/Downloads/rDock_2013.1_src/data/scripts/dock_solv.prm

>  <Rbt.Receptor>
/home/v/Desktop/r.prm

>  <SCORE>
7.49196

>  <SCORE.INTER>
8.4

>  <SCORE.INTER.CONST>
1

>  <SCORE.INTER.POLAR>
0

>  <SCORE.INTER.ROT>
3

>  <SCORE.INTER.SOLV>
0

>  <SCORE.INTER.VDW>
0

>  <SCORE.INTER.norm>
0.6

>  <SCORE.INTRA>
-0.908043

>  <SCORE.INTRA.DIHEDRAL>
-1.61457

>  <SCORE.INTRA.DIHEDRAL.0>
1.6411

>  <SCORE.INTRA.POLAR>
0

>  <SCORE.INTRA.POLAR.0>
0

>  <SCORE.INTRA.REPUL>
0

>  <SCORE.INTRA.REPUL.0>
0

>  <SCORE.INTRA.SOLV>
-0.294328

>  <SCORE.INTRA.SOLV.lig_0>
-16.0602

>  <SCORE.INTRA.VDW>
0.0464052

>  <SCORE.INTRA.VDW.0>
-0.639572

>  <SCORE.INTRA.norm>
-0.0648602

>  <SCORE.RESTR>
0

>  <SCORE.RESTR.CAVITY>
0

>  <SCORE.RESTR.norm>
0

>  <SCORE.SYSTEM>
0

>  <SCORE.SYSTEM.CONST>
0

>  <SCORE.SYSTEM.DIHEDRAL>
0

>  <SCORE.SYSTEM.SOLV>
0

>  <SCORE.SYSTEM.norm>
0

>  <SCORE.heavy>
14

>  <SCORE.norm>
0.53514

$$$$
ligand.pdb
  rDOCK(R)          3D
libRbt.so/2013.1/901 2013/11/27
 14 14  0  0  0  0  0  0  0  0999 V2000
   17.0629   -4.8491   -8.3168 C   0  0  0  0  0  0
   17.2355  -11.9901  -11.8343 C   0  0  0  0  0  0
   17.1597   -6.3459   -8.0701 C   0  0  0  0  0  0
   17.0372   -7.1722   -9.3499 C   0  0  0  0  0  0
   17.0126   -9.5174  -10.0855 C   0  0  0  0  0  0
   17.2375  -11.9935  -10.4444 C   0  0  0  0  0  0
   17.3257  -13.2037   -9.7713 C   0  0  0  0  0  0
   17.4254  -14.3909  -10.4816 C   0  0  0  0  0  0
   17.4088  -14.3824  -11.8581 C   0  0  0  0  0  0
   17.3200  -13.1873  -12.5314 C   0  0  0  0  0  0
   17.1000   -8.6012   -9.0950 N   0  0  0  0  0  0
   17.1400  -10.8172   -9.6622 N   0  0  0  0  0  0
   16.8238   -9.2040  -11.2681 O   0  0  0  0  0  0
   18.3953   -6.6556   -7.4388 O   0  0  0  0  0  0
  2 10  2  0  0  0
  2  6  1  0  0  0
  3  4  1  0  0  0
  3  1  1  0  0  0
  4 11  1  0  0  0
  5 11  1  0  0  0
  5 12  1  0  0  0
  6  7  2  0  0  0
  7  8  1  0  0  0
  9  8  2  0  0  0
 10  9  1  0  0  0
 12  6  1  0  0  0
 13  5  2  0  0  0
 14  3  1  0  0  0
M  END
>  <CHROM.1>
-178.64495963,-179.95996260,0.95393600,17.27064354,-10.01259013,-9.96356902
1.54185433,-1.30585674,0.36085944

>  <Name>
ligand.pdb

>  <RI>
2.24188e+07

>  <Rbt.Current_Directory>
/home/v/Downloads/rDock_2013.1_src/bin

>  <Rbt.Executable>
rbdock ($Id: //depot/dev/client3/rdock/2013.1/src/exe/rbdock.cxx#4 $)

>  <Rbt.Library>
libRbt.so (2013.1, Build901 2013/11/27)

>  <Rbt.Parameter_File>
/home/v/Downloads/rDock_2013.1_src/data/scripts/dock_solv.prm

>  <Rbt.Receptor>
/home/v/Desktop/r.prm

>  <SCORE>
7.4921

>  <SCORE.INTER>
8.4

>  <SCORE.INTER.CONST>
1

>  <SCORE.INTER.POLAR>
0

>  <SCORE.INTER.ROT>
3

>  <SCORE.INTER.SOLV>
0

>  <SCORE.INTER.VDW>
0

>  <SCORE.INTER.norm>
0.6

>  <SCORE.INTRA>
-0.907901

>  <SCORE.INTRA.DIHEDRAL>
-1.61381

>  <SCORE.INTRA.DIHEDRAL.0>
1.6411

>  <SCORE.INTRA.POLAR>
0

>  <SCORE.INTRA.POLAR.0>
0

>  <SCORE.INTRA.REPUL>
0

>  <SCORE.INTRA.REPUL.0>
0

>  <SCORE.INTRA.SOLV>
-0.293562

>  <SCORE.INTRA.SOLV.lig_0>
-16.0602

>  <SCORE.INTRA.VDW>
0.0457851

>  <SCORE.INTRA.VDW.0>
-0.639572

>  <SCORE.INTRA.norm>
-0.06485

>  <SCORE.RESTR>
0

>  <SCORE.RESTR.CAVITY>
0

>  <SCORE.RESTR.norm>
0

>  <SCORE.SYSTEM>
0

>  <SCORE.SYSTEM.CONST>
0

>  <SCORE.SYSTEM.DIHEDRAL>
0

>  <SCORE.SYSTEM.SOLV>
0

>  <SCORE.SYSTEM.norm>
0

>  <SCORE.heavy>
14

>  <SCORE.norm>
0.53515

$$$$
ligand.pdb
  rDOCK(R)          3D
libRbt.so/2013.1/901 2013/11/27
 14 14  0  0  0  0  0  0  0  0999 V2000
   16.7286   -6.3802   -4.5980 C   0  0  0  0  0  0
   20.2355   -9.8464  -10.8518 C   0  0  0  0  0  0
   16.6752   -6.5482   -6.1078 C   0  0  0  0  0  0
   17.8220   -7.3968   -6.6561 C   0  0  0  0  0  0
   18.7096   -8.2086   -8.7996 C   0  0  0  0  0  0
   19.1698   -9.0012  -11.1385 C   0  0  0  0  0  0
   18.7546   -8.8593  -12.4548 C   0  0  0  0  0  0
   19.3889   -9.5657  -13.4661 C   0  0  0  0  0  0
   20.4527  -10.3905  -13.1778 C   0  0  0  0  0  0
   20.8705  -10.5346  -11.8762 C   0  0  0  0  0  0
   17.7792   -7.5176   -8.1033 N   0  0  0  0  0  0
   18.4805   -8.2545  -10.1524 N   0  0  0  0  0  0
   19.6866   -8.7423   -8.2580 O   0  0  0  0  0  0
   15.4407   -7.1423   -6.4874 O   0  0  0  0  0  0
  2 10  2  0  0  0
  2  6  1  0  0  0
  3  4  1  0  0  0
  3  1  1  0  0  0
  4 11  1  0  0  0
  5 11  1  0  0  0
  5 12  1  0  0  0
  6  7  2  0  0  0
  7  8  1  0  0  0
  9  8  2  0  0  0
 10  9  1  0  0  0
 12  6  1  0  0  0
 13  5  2  0  0  0
 14  3  1  0  0  0
M  END
>  <CHROM.1>
-178.38820394,179.02685708,0.28616308,18.52141322,-8.40532628,-9.29882301
-2.05124930,0.45563461,-1.77562811

>  <Name>
ligand.pdb

>  <RI>
2.24188e+07

>  <Rbt.Current_Directory>
/home/v/Downloads/rDock_2013.1_src/bin

>  <Rbt.Executable>
rbdock ($Id: //depot/dev/client3/rdock/2013.1/src/exe/rbdock.cxx#4 $)

>  <Rbt.Library>
libRbt.so (2013.1, Build901 2013/11/27)

>  <Rbt.Parameter_File>
/home/v/Downloads/rDock_2013.1_src/data/scripts/dock_solv.prm

>  <Rbt.Receptor>
/home/v/Desktop/r.prm

>  <SCORE>
7.49234

>  <SCORE.INTER>
8.4

>  <SCORE.INTER.CONST>
1

>  <SCORE.INTER.POLAR>
0

>  <SCORE.INTER.ROT>
3

>  <SCORE.INTER.SOLV>
0

>  <SCORE.INTER.VDW>
0

>  <SCORE.INTER.norm>
0.6

>  <SCORE.INTRA>
-0.907657

>  <SCORE.INTRA.DIHEDRAL>
-1.61254

>  <SCORE.INTRA.DIHEDRAL.0>
1.6411

>  <SCORE.INTRA.POLAR>
0

>  <SCORE.INTRA.POLAR.0>
0

>  <SCORE.INTRA.REPUL>
0

>  <SCORE.INTRA.REPUL.0>
0

>  <SCORE.INTRA.SOLV>
-0.296054

>  <SCORE.INTRA.SOLV.lig_0>
-16.0602

>  <SCORE.INTRA.VDW>
0.0466402

>  <SCORE.INTRA.VDW.0>
-0.639572

>  <SCORE.INTRA.norm>
-0.0648326

>  <SCORE.RESTR>
0

>  <SCORE.RESTR.CAVITY>
0

>  <SCORE.RESTR.norm>
0

>  <SCORE.SYSTEM>
0

>  <SCORE.SYSTEM.CONST>
0

>  <SCORE.SYSTEM.DIHEDRAL>
0

>  <SCORE.SYSTEM.SOLV>
0

>  <SCORE.SYSTEM.norm>
0

>  <SCORE.heavy>
14

>  <SCORE.norm>
0.535167

$$$$
ligand.pdb
  rDOCK(R)          3D
libRbt.so/2013.1/901 2013/11/27
 14 14  0  0  0  0  0  0  0  0999 V2000
   21.7123  -12.9528  -12.8421 C   0  0  0  0  0  0
   15.8973   -7.7976  -14.5796 C   0  0  0  0  0  0
   21.3353  -11.4805  -12.8726 C   0  0  0  0  0  0
   19.9403  -11.2320  -13.4454 C   0  0  0  0  0  0
   18.4222   -9.3723  -13.9731 C   0  0  0  0  0  0
   17.1047   -7.2426  -14.1720 C   0  0  0  0  0  0
   17.2050   -5.8651  -14.0388 C   0  0  0  0  0  0
   16.1067   -5.0580  -14.2962 C   0  0  0  0  0  0
   14.9176   -5.6123  -14.7131 C   0  0  0  0  0  0
   14.8116   -6.9761  -14.8487 C   0  0  0  0  0  0
   19.6036   -9.8194  -13.4911 N   0  0  0  0  0  0
   18.2608   -8.0113  -13.8929 N   0  0  0  0  0  0
   17.5689  -10.1300  -14.4530 O   0  0  0  0  0  0
   21.3981  -10.9354  -11.5611 O   0  0  0  0  0  0
  2 10  2  0  0  0
  2  6  1  0  0  0
  3  4  1  0  0  0
  3  1  1  0  0  0
  4 11  1  0  0  0
  5 11  1  0  0  0
  5 12  1  0  0  0
  6  7  2  0  0  0
  7  8  1  0  0  0
  9  8  2  0  0  0
 10  9  1  0  0  0
 12  6  1  0  0  0
 13  5  2  0  0  0
 14  3  1  0  0  0
M  END
>  <CHROM.1>
-178.93794323,179.40070646,0.60170741,18.26329356,-8.86835500,-13.75792726
0.68766772,0.50013440,-2.93191438

>  <Name>
ligand.pdb

>  <RI>
2.24188e+07

>  <Rbt.Current_Directory>
/home/v/Downloads/rDock_2013.1_src/bin

>  <Rbt.Executable>
rbdock ($Id: //depot/dev/client3/rdock/2013.1/src/exe/rbdock.cxx#4 $)

>  <Rbt.Library>
libRbt.so (2013.1, Build901 2013/11/27)

>  <Rbt.Parameter_File>
/home/v/Downloads/rDock_2013.1_src/data/scripts/dock_solv.prm

>  <Rbt.Receptor>
/home/v/Desktop/r.prm

>  <SCORE>
7.49205

>  <SCORE.INTER>
8.4

>  <SCORE.INTER.CONST>
1

>  <SCORE.INTER.POLAR>
0

>  <SCORE.INTER.ROT>
3

>  <SCORE.INTER.SOLV>
0

>  <SCORE.INTER.VDW>
0

>  <SCORE.INTER.norm>
0.6

>  <SCORE.INTRA>
-0.907948

>  <SCORE.INTRA.DIHEDRAL>
-1.61782

>  <SCORE.INTRA.DIHEDRAL.0>
1.6411

>  <SCORE.INTRA.POLAR>
0

>  <SCORE.INTRA.POLAR.0>
0

>  <SCORE.INTRA.REPUL>
0

>  <SCORE.INTRA.REPUL.0>
0

>  <SCORE.INTRA.SOLV>
-0.293118

>  <SCORE.INTRA.SOLV.lig_0>
-16.0602

>  <SCORE.INTRA.VDW>
0.0475209

>  <SCORE.INTRA.VDW.0>
-0.639572

>  <SCORE.INTRA.norm>
-0.0648535

>  <SCORE.RESTR>
0

>  <SCORE.RESTR.CAVITY>
0

>  <SCORE.RESTR.norm>
0

>  <SCORE.SYSTEM>
0

>  <SCORE.SYSTEM.CONST>
0

>  <SCORE.SYSTEM.DIHEDRAL>
0

>  <SCORE.SYSTEM.SOLV>
0

>  <SCORE.SYSTEM.norm>
0

>  <SCORE.heavy>
14

>  <SCORE.norm>
0.535147

$$$$
ligand.pdb
  rDOCK(R)          3D
libRbt.so/2013.1/901 2013/11/27
 14 14  0  0  0  0  0  0  0  0999 V2000
   11.5296  -11.4540  -11.8000 C   0  0  0  0  0  0
   12.3890   -3.5541  -12.3199 C   0  0  0  0  0  0
   12.5365  -10.3157  -11.7649 C   0  0  0  0  0  0
   11.9025   -8.9483  -12.0177 C   0  0  0  0  0  0
   12.5425   -6.5862  -12.2465 C   0  0  0  0  0  0
   13.5622   -4.2907  -12.2057 C   0  0  0  0  0  0
   14.7762   -3.6224  -12.1372 C   0  0  0  0  0  0
   14.8117   -2.2361  -12.1677 C   0  0  0  0  0  0
   13.6476   -1.5124  -12.2951 C   0  0  0  0  0  0
   12.4415   -2.1680  -12.3651 C   0  0  0  0  0  0
   12.8826   -7.8758  -12.0247 N   0  0  0  0  0  0
   13.5930   -5.7059  -12.1679 N   0  0  0  0  0  0
   11.3834   -6.2383  -12.5075 O   0  0  0  0  0  0
   13.1981  -10.2908  -10.5068 O   0  0  0  0  0  0
  2 10  2  0  0  0
  2  6  1  0  0  0
  3  4  1  0  0  0
  3  1  1  0  0  0
  4 11  1  0  0  0
  5 11  1  0  0  0
  5 12  1  0  0  0
  6  7  2  0  0  0
  7  8  1  0  0  0
  9  8  2  0  0  0
 10  9  1  0  0  0
 12  6  1  0  0  0
 13  5  2  0  0  0
 14  3  1  0  0  0
M  END
>  <CHROM.1>
-178.11044032,179.17259613,0.78076184,12.90377485,-6.21212753,-12.01708821
1.75655783,0.29132921,2.99351464

>  <Name>
ligand.pdb

>  <RI>
2.24188e+07

>  <Rbt.Current_Directory>
/home/v/Downloads/rDock_2013.1_src/bin

>  <Rbt.Executable>
rbdock ($Id: //depot/dev/client3/rdock/2013.1/src/exe/rbdock.cxx#4 $)

>  <Rbt.Library>
libRbt.so (2013.1, Build901 2013/11/27)

>  <Rbt.Parameter_File>
/home/v/Downloads/rDock_2013.1_src/data/scripts/dock_solv.prm

>  <Rbt.Receptor>
/home/v/Desktop/r.prm

>  <SCORE>
7.49266

>  <SCORE.INTER>
8.4

>  <SCORE.INTER.CONST>
1

>  <SCORE.INTER.POLAR>
0

>  <SCORE.INTER.ROT>
3

>  <SCORE.INTER.SOLV>
0

>  <SCORE.INTER.VDW>
0

>  <SCORE.INTER.norm>
0.6

>  <SCORE.INTRA>
-0.907339

>  <SCORE.INTRA.DIHEDRAL>
-1.60738

>  <SCORE.INTRA.DIHEDRAL.0>
1.6411

>  <SCORE.INTRA.POLAR>
0

>  <SCORE.INTRA.POLAR.0>
0

>  <SCORE.INTRA.REPUL>
0

>  <SCORE.INTRA.REPUL.0>
0

>  <SCORE.INTRA.SOLV>
-0.297102

>  <SCORE.INTRA.SOLV.lig_0>
-16.0602

>  <SCORE.INTRA.VDW>
0.0448994

>  <SCORE.INTRA.VDW.0>
-0.639572

>  <SCORE.INTRA.norm>
-0.0648099

>  <SCORE.RESTR>
0

>  <SCORE.RESTR.CAVITY>
0

>  <SCORE.RESTR.norm>
0

>  <SCORE.SYSTEM>
0

>  <SCORE.SYSTEM.CONST>
0

>  <SCORE.SYSTEM.DIHEDRAL>
0

>  <SCORE.SYSTEM.SOLV>
0

>  <SCORE.SYSTEM.norm>
0

>  <SCORE.heavy>
14

>  <SCORE.norm>
0.53519

$$$$
ligand.pdb
  rDOCK(R)          3D
libRbt.so/2013.1/901 2013/11/27
 14 14  0  0  0  0  0  0  0  0999 V2000
   12.5044   -3.4873  -13.7907 C   0  0  0  0  0  0
   13.0342  -11.3261  -15.0863 C   0  0  0  0  0  0
   13.3398   -4.7293  -13.5258 C   0  0  0  0  0  0
   12.7104   -6.0043  -14.0861 C   0  0  0  0  0  0
   13.1323   -8.4232  -14.1999 C   0  0  0  0  0  0
   14.0178  -10.7728  -14.2749 C   0  0  0  0  0  0
   15.0382  -11.5844  -13.8001 C   0  0  0  0  0  0
   15.0795  -12.9269  -14.1462 C   0  0  0  0  0  0
   14.0949  -13.4724  -14.9388 C   0  0  0  0  0  0
   13.0801  -12.6746  -15.4113 C   0  0  0  0  0  0
   13.5075   -7.1859  -13.8043 N   0  0  0  0  0  0
   14.0329   -9.4110  -13.8871 N   0  0  0  0  0  0
   12.0627   -8.6399  -14.7843 O   0  0  0  0  0  0
   14.6367   -4.5714  -14.0864 O   0  0  0  0  0  0
  2 10  2  0  0  0
  2  6  1  0  0  0
  3  4  1  0  0  0
  3  1  1  0  0  0
  4 11  1  0  0  0
  5 11  1  0  0  0
  5 12  1  0  0  0
  6  7  2  0  0  0
  7  8  1  0  0  0
  9  8  2  0  0  0
 10  9  1  0  0  0
 12  6  1  0  0  0
 13  5  2  0  0  0
 14  3  1  0  0  0
M  END
>  <CHROM.1>
-178.94381167,179.51229195,0.67689701,13.56922354,-8.78405172,-14.26796977
1.68374655,-0.36058655,0.14095992

>  <Name>
ligand.pdb

>  <RI>
2.24188e+07

>  <Rbt.Current_Directory>
/home/v/Downloads/rDock_2013.1_src/bin

>  <Rbt.Executable>
rbdock ($Id: //depot/dev/client3/rdock/2013.1/src/exe/rbdock.cxx#4 $)

>  <Rbt.Library>
libRbt.so (2013.1, Build901 2013/11/27)

>  <Rbt.Parameter_File>
/home/v/Downloads/rDock_2013.1_src/data/scripts/dock_solv.prm

>  <Rbt.Receptor>
/home/v/Desktop/r.prm

>  <SCORE>
7.49204

>  <SCORE.INTER>
8.4

>  <SCORE.INTER.CONST>
1

>  <SCORE.INTER.POLAR>
0

>  <SCORE.INTER.ROT>
3

>  <SCORE.INTER.SOLV>
0

>  <SCORE.INTER.VDW>
0

>  <SCORE.INTER.norm>
0.6

>  <SCORE.INTRA>
-0.907956

>  <SCORE.INTRA.DIHEDRAL>
-1.61769

>  <SCORE.INTRA.DIHEDRAL.0>
1.6411

>  <SCORE.INTRA.POLAR>
0

>  <SCORE.INTRA.POLAR.0>
0

>  <SCORE.INTRA.REPUL>
0

>  <SCORE.INTRA.REPUL.0>
0

>  <SCORE.INTRA.SOLV>
-0.292945

>  <SCORE.INTRA.SOLV.lig_0>
-16.0602

>  <SCORE.INTRA.VDW>
0.0473605

>  <SCORE.INTRA.VDW.0>
-0.639572

>  <SCORE.INTRA.norm>
-0.064854

>  <SCORE.RESTR>
0

>  <SCORE.RESTR.CAVITY>
0

>  <SCORE.RESTR.norm>
0

>  <SCORE.SYSTEM>
0

>  <SCORE.SYSTEM.CONST>
0

>  <SCORE.SYSTEM.DIHEDRAL>
0

>  <SCORE.SYSTEM.SOLV>
0

>  <SCORE.SYSTEM.norm>
0

>  <SCORE.heavy>
14

>  <SCORE.norm>
0.535146

$$$$
ligand.pdb
  rDOCK(R)          3D
libRbt.so/2013.1/901 2013/11/27
 14 14  0  0  0  0  0  0  0  0999 V2000
   13.2115   -2.0990  -10.5505 C   0  0  0  0  0  0
   17.0885   -7.6112   -6.3082 C   0  0  0  0  0  0
   14.2180   -3.2354  -10.6290 C   0  0  0  0  0  0
   14.5456   -3.8395   -9.2639 C   0  0  0  0  0  0
   15.9741   -5.5705   -8.2615 C   0  0  0  0  0  0
   17.4037   -7.5467   -7.6604 C   0  0  0  0  0  0
   18.3056   -8.4592   -8.1888 C   0  0  0  0  0  0
   18.8712   -9.4308   -7.3764 C   0  0  0  0  0  0
   18.5660   -9.4810   -6.0350 C   0  0  0  0  0  0
   17.6745   -8.5791   -5.5044 C   0  0  0  0  0  0
   15.5249   -4.9092   -9.3518 N   0  0  0  0  0  0
   16.8601   -6.5809   -8.5418 N   0  0  0  0  0  0
   15.6203   -5.2774   -7.1119 O   0  0  0  0  0  0
   13.7264   -4.2622  -11.4806 O   0  0  0  0  0  0
  2 10  2  0  0  0
  2  6  1  0  0  0
  3  4  1  0  0  0
  3  1  1  0  0  0
  4 11  1  0  0  0
  5 11  1  0  0  0
  5 12  1  0  0  0
  6  7  2  0  0  0
  7  8  1  0  0  0
  9  8  2  0  0  0
 10  9  1  0  0  0
 12  6  1  0  0  0
 13  5  2  0  0  0
 14  3  1  0  0  0
M  END
>  <CHROM.1>
-179.04641171,179.03213222,0.39125480,16.16075834,-6.09683327,-8.37450111
2.67352298,0.92206113,-1.61441931

>  <Name>
ligand.pdb

>  <RI>
2.24188e+07

>  <Rbt.Current_Directory>
/home/v/Downloads/rDock_2013.1_src/bin

>  <Rbt.Executable>
rbdock ($Id: //depot/dev/client3/rdock/2013.1/src/exe/rbdock.cxx#4 $)

>  <Rbt.Library>
libRbt.so (2013.1, Build901 2013/11/27)

>  <Rbt.Parameter_File>
/home/v/Downloads/rDock_2013.1_src/data/scripts/dock_solv.prm

>  <Rbt.Receptor>
/home/v/Desktop/r.prm

>  <SCORE>
7.49232

>  <SCORE.INTER>
8.4

>  <SCORE.INTER.CONST>
1

>  <SCORE.INTER.POLAR>
0

>  <SCORE.INTER.ROT>
3

>  <SCORE.INTER.SOLV>
0

>  <SCORE.INTER.VDW>
0

>  <SCORE.INTER.norm>
0.6

>  <SCORE.INTRA>
-0.907679

>  <SCORE.INTRA.DIHEDRAL>
-1.6189

>  <SCORE.INTRA.DIHEDRAL.0>
1.6411

>  <SCORE.INTRA.POLAR>
0

>  <SCORE.INTRA.POLAR.0>
0

>  <SCORE.INTRA.REPUL>
0

>  <SCORE.INTRA.REPUL.0>
0

>  <SCORE.INTRA.SOLV>
-0.293115

>  <SCORE.INTRA.SOLV.lig_0>
-16.0602

>  <SCORE.INTRA.VDW>
0.0483271

>  <SCORE.INTRA.VDW.0>
-0.639572

>  <SCORE.INTRA.norm>
-0.0648342

>  <SCORE.RESTR>
0

>  <SCORE.RESTR.CAVITY>
0

>  <SCORE.RESTR.norm>
0

>  <SCORE.SYSTEM>
0

>  <SCORE.SYSTEM.CONST>
0

>  <SCORE.SYSTEM.DIHEDRAL>
0

>  <SCORE.SYSTEM.SOLV>
0

>  <SCORE.SYSTEM.norm>
0

>  <SCORE.heavy>
14

>  <SCORE.norm>
0.535166

$$$$
ligand.pdb
  rDOCK(R)          3D
libRbt.so/2013.1/901 2013/11/27
 14 14  0  0  0  0  0  0  0  0999 V2000
   20.0448   -7.0111  -11.8847 C   0  0  0  0  0  0
   18.3243  -12.7358   -6.6230 C   0  0  0  0  0  0
   18.9557   -7.9517  -11.3950 C   0  0  0  0  0  0
   19.4324   -8.8959  -10.2919 C   0  0  0  0  0  0
   18.5948  -10.7322   -8.8889 C   0  0  0  0  0  0
   17.3165  -12.4083   -7.5225 C   0  0  0  0  0  0
   16.0831  -13.0346   -7.4135 C   0  0  0  0  0  0
   15.8594  -13.9640   -6.4086 C   0  0  0  0  0  0
   16.8657  -14.2946   -5.5292 C   0  0  0  0  0  0
   18.0906  -13.6793   -5.6323 C   0  0  0  0  0  0
   18.3880   -9.8042   -9.8502 N   0  0  0  0  0  0
   17.4810  -11.4680   -8.5684 N   0  0  0  0  0  0
   19.6988  -10.9045   -8.3559 O   0  0  0  0  0  0
   17.8475   -7.2031  -10.9130 O   0  0  0  0  0  0
  2 10  2  0  0  0
  2  6  1  0  0  0
  3  4  1  0  0  0
  3  1  1  0  0  0
  4 11  1  0  0  0
  5 11  1  0  0  0
  5 12  1  0  0  0
  6  7  2  0  0  0
  7  8  1  0  0  0
  9  8  2  0  0  0
 10  9  1  0  0  0
 12  6  1  0  0  0
 13  5  2  0  0  0
 14  3  1  0  0  0
M  END
>  <CHROM.1>
-178.99856368,179.47562532,-0.09069947,18.11990111,-10.88234028,-8.60980965
-1.29781377,0.12583724,2.41461837

>  <Name>
ligand.pdb

>  <RI>
2.24188e+07

>  <Rbt.Current_Directory>
/home/v/Downloads/rDock_2013.1_src/bin

>  <Rbt.Executable>
rbdock ($Id: //depot/dev/client3/rdock/2013.1/src/exe/rbdock.cxx#4 $)

>  <Rbt.Library>
libRbt.so (2013.1, Build901 2013/11/27)

>  <Rbt.Parameter_File>
/home/v/Downloads/rDock_2013.1_src/data/scripts/dock_solv.prm

>  <Rbt.Receptor>
/home/v/Desktop/r.prm

>  <SCORE>
7.49252

>  <SCORE.INTER>
8.4

>  <SCORE.INTER.CONST>
1

>  <SCORE.INTER.POLAR>
0

>  <SCORE.INTER.ROT>
3

>  <SCORE.INTER.SOLV>
0

>  <SCORE.INTER.VDW>
0

>  <SCORE.INTER.norm>
0.6

>  <SCORE.INTRA>
-0.907477

>  <SCORE.INTRA.DIHEDRAL>
-1.61996

>  <SCORE.INTRA.DIHEDRAL.0>
1.6411

>  <SCORE.INTRA.POLAR>
0

>  <SCORE.INTRA.POLAR.0>
0

>  <SCORE.INTRA.REPUL>
0

>  <SCORE.INTRA.REPUL.0>
0

>  <SCORE.INTRA.SOLV>
-0.292763

>  <SCORE.INTRA.SOLV.lig_0>
-16.0602

>  <SCORE.INTRA.VDW>
0.0488835

>  <SCORE.INTRA.VDW.0>
-0.639572

>  <SCORE.INTRA.norm>
-0.0648198

>  <SCORE.RESTR>
0

>  <SCORE.RESTR.CAVITY>
0

>  <SCORE.RESTR.norm>
0

>  <SCORE.SYSTEM>
0

>  <SCORE.SYSTEM.CONST>
0

>  <SCORE.SYSTEM.DIHEDRAL>
0

>  <SCORE.SYSTEM.SOLV>
0

>  <SCORE.SYSTEM.norm>
0

>  <SCORE.heavy>
14

>  <SCORE.norm>
0.53518

$$$$
ligand.pdb
  rDOCK(R)          3D
libRbt.so/2013.1/901 2013/11/27
 14 14  0  0  0  0  0  0  0  0999 V2000
   22.1439   -9.9744   -6.9731 C   0  0  0  0  0  0
   14.4508   -8.0967   -6.1378 C   0  0  0  0  0  0
   20.8675   -9.6327   -7.7245 C   0  0  0  0  0  0
   19.6655   -9.4331   -6.8019 C   0  0  0  0  0  0
   17.2578   -8.9528   -6.9192 C   0  0  0  0  0  0
   14.9058   -8.2426   -7.4430 C   0  0  0  0  0  0
   14.0301   -8.0112   -8.4942 C   0  0  0  0  0  0
   12.7224   -7.6249   -8.2401 C   0  0  0  0  0  0
   12.2735   -7.4956   -6.9452 C   0  0  0  0  0  0
   13.1351   -7.7249   -5.8989 C   0  0  0  0  0  0
   18.4473   -9.1352   -7.5355 N   0  0  0  0  0  0
   16.2276   -8.6325   -7.7683 N   0  0  0  0  0  0
   17.1156   -9.0760   -5.6956 O   0  0  0  0  0  0
   21.0577   -8.4528   -8.4944 O   0  0  0  0  0  0
  2 10  2  0  0  0
  2  6  1  0  0  0
  3  4  1  0  0  0
  3  1  1  0  0  0
  4 11  1  0  0  0
  5 11  1  0  0  0
  5 12  1  0  0  0
  6  7  2  0  0  0
  7  8  1  0  0  0
  9  8  2  0  0  0
 10  9  1  0  0  0
 12  6  1  0  0  0
 13  5  2  0  0  0
 14  3  1  0  0  0
M  END
>  <CHROM.1>
-178.77555641,178.42193867,1.39336102,16.89464798,-8.63277961,-7.21561368
0.00865981,-0.20945857,1.79777944

>  <Name>
ligand.pdb

>  <RI>
2.24188e+07

>  <Rbt.Current_Directory>
/home/v/Downloads/rDock_2013.1_src/bin

>  <Rbt.Executable>
rbdock ($Id: //depot/dev/client3/rdock/2013.1/src/exe/rbdock.cxx#4 $)

>  <Rbt.Library>
libRbt.so (2013.1, Build901 2013/11/27)

>  <Rbt.Parameter_File>
/home/v/Downloads/rDock_2013.1_src/data/scripts/dock_solv.prm

>  <Rbt.Receptor>
/home/v/Desktop/r.prm

>  <SCORE>
7.49276

>  <SCORE.INTER>
8.4

>  <SCORE.INTER.CONST>
1

>  <SCORE.INTER.POLAR>
0

>  <SCORE.INTER.ROT>
3

>  <SCORE.INTER.SOLV>
0

>  <SCORE.INTER.VDW>
0

>  <SCORE.INTER.norm>
0.6

>  <SCORE.INTRA>
-0.90724

>  <SCORE.INTRA.DIHEDRAL>
-1.61052

>  <SCORE.INTRA.DIHEDRAL.0>
1.6411

>  <SCORE.INTRA.POLAR>
0

>  <SCORE.INTRA.POLAR.0>
0

>  <SCORE.INTRA.REPUL>
0

>  <SCORE.INTRA.REPUL.0>
0

>  <SCORE.INTRA.SOLV>
-0.2951

>  <SCORE.INTRA.SOLV.lig_0>
-16.0602

>  <SCORE.INTRA.VDW>
0.0455686

>  <SCORE.INTRA.VDW.0>
-0.639572

>  <SCORE.INTRA.norm>
-0.0648029

>  <SCORE.RESTR>
0

>  <SCORE.RESTR.CAVITY>
0

>  <SCORE.RESTR.norm>
0

>  <SCORE.SYSTEM>
0

>  <SCORE.SYSTEM.CONST>
0

>  <SCORE.SYSTEM.DIHEDRAL>
0

>  <SCORE.SYSTEM.SOLV>
0

>  <SCORE.SYSTEM.norm>
0

>  <SCORE.heavy>
14

>  <SCORE.norm>
0.535197

$$$$
ligand.pdb
  rDOCK(R)          3D
libRbt.so/2013.1/901 2013/11/27
 14 14  0  0  0  0  0  0  0  0999 V2000
   11.9099  -12.1845   -5.8743 C   0  0  0  0  0  0
    9.2696   -7.7198  -11.9163 C   0  0  0  0  0  0
   12.1043  -10.8727   -6.6175 C   0  0  0  0  0  0
   11.1721  -10.7223   -7.8191 C   0  0  0  0  0  0
   10.6959   -9.1543   -9.6512 C   0  0  0  0  0  0
   10.3675   -7.2230  -11.2237 C   0  0  0  0  0  0
   10.8934   -5.9907  -11.5844 C   0  0  0  0  0  0
   10.3176   -5.2613  -12.6141 C   0  0  0  0  0  0
    9.2390   -5.7647  -13.3056 C   0  0  0  0  0  0
    8.7138   -6.9857  -12.9547 C   0  0  0  0  0  0
   11.3876   -9.4765   -8.5350 N   0  0  0  0  0  0
   10.9993   -7.9174  -10.1636 N   0  0  0  0  0  0
    9.8693   -9.9184  -10.1665 O   0  0  0  0  0  0
   11.8969   -9.7783   -5.7341 O   0  0  0  0  0  0
  2 10  2  0  0  0
  2  6  1  0  0  0
  3  4  1  0  0  0
  3  1  1  0  0  0
  4 11  1  0  0  0
  5 11  1  0  0  0
  5 12  1  0  0  0
  6  7  2  0  0  0
  7  8  1  0  0  0
  9  8  2  0  0  0
 10  9  1  0  0  0
 12  6  1  0  0  0
 13  5  2  0  0  0
 14  3  1  0  0  0
M  END
>  <CHROM.1>
-178.84695618,178.21549281,1.33937096,10.66220011,-8.59584102,-9.74448647
1.13413328,0.89885610,2.57808409

>  <Name>
ligand.pdb

>  <RI>
2.24188e+07

>  <Rbt.Current_Directory>
/home/v/Downloads/rDock_2013.1_src/bin

>  <Rbt.Executable>
rbdock ($Id: //depot/dev/client3/rdock/2013.1/src/exe/rbdock.cxx#4 $)

>  <Rbt.Library>
libRbt.so (2013.1, Build901 2013/11/27)

>  <Rbt.Parameter_File>
/home/v/Downloads/rDock_2013.1_src/data/scripts/dock_solv.prm

>  <Rbt.Receptor>
/home/v/Desktop/r.prm

>  <SCORE>
7.49295

>  <SCORE.INTER>
8.4

>  <SCORE.INTER.CONST>
1

>  <SCORE.INTER.POLAR>
0

>  <SCORE.INTER.ROT>
3

>  <SCORE.INTER.SOLV>
0

>  <SCORE.INTER.VDW>
0

>  <SCORE.INTER.norm>
0.6

>  <SCORE.INTRA>
-0.907054

>  <SCORE.INTRA.DIHEDRAL>
-1.61097

>  <SCORE.INTRA.DIHEDRAL.0>
1.6411

>  <SCORE.INTRA.POLAR>
0

>  <SCORE.INTRA.POLAR.0>
0

>  <SCORE.INTRA.REPUL>
0

>  <SCORE.INTRA.REPUL.0>
0

>  <SCORE.INTRA.SOLV>
-0.29503

>  <SCORE.INTRA.SOLV.lig_0>
-16.0602

>  <SCORE.INTRA.VDW>
0.0459471

>  <SCORE.INTRA.VDW.0>
-0.639572

>  <SCORE.INTRA.norm>
-0.0647896

>  <SCORE.RESTR>
0

>  <SCORE.RESTR.CAVITY>
0

>  <SCORE.RESTR.norm>
0

>  <SCORE.SYSTEM>
0

>  <SCORE.SYSTEM.CONST>
0

>  <SCORE.SYSTEM.DIHEDRAL>
0

>  <SCORE.SYSTEM.SOLV>
0

>  <SCORE.SYSTEM.norm>
0

>  <SCORE.heavy>
14

>  <SCORE.norm>
0.53521

$$$$
ligand.pdb
  rDOCK(R)          3D
libRbt.so/2013.1/901 2013/11/27
 14 14  0  0  0  0  0  0  0  0999 V2000
   14.9284   -7.4272   -8.5264 C   0  0  0  0  0  0
   19.0344  -14.2376   -8.1237 C   0  0  0  0  0  0
   16.2054   -8.1274   -8.9620 C   0  0  0  0  0  0
   16.3376   -9.5392   -8.3921 C   0  0  0  0  0  0
   17.9110  -11.4276   -8.3784 C   0  0  0  0  0  0
   19.6605  -13.1849   -8.7807 C   0  0  0  0  0  0
   20.9074  -13.3912   -9.3535 C   0  0  0  0  0  0
   21.5102  -14.6383   -9.2812 C   0  0  0  0  0  0
   20.8915  -15.6733   -8.6170 C   0  0  0  0  0  0
   19.6569  -15.4756   -8.0458 C   0  0  0  0  0  0
   17.5789  -10.1825   -8.7874 N   0  0  0  0  0  0
   19.0979  -11.8900   -8.8904 N   0  0  0  0  0  0
   17.2055  -12.0837   -7.6010 O   0  0  0  0  0  0
   16.2619   -8.1967  -10.3809 O   0  0  0  0  0  0
  2 10  2  0  0  0
  2  6  1  0  0  0
  3  4  1  0  0  0
  3  1  1  0  0  0
  4 11  1  0  0  0
  5 11  1  0  0  0
  5 12  1  0  0  0
  6  7  2  0  0  0
  7  8  1  0  0  0
  9  8  2  0  0  0
 10  9  1  0  0  0
 12  6  1  0  0  0
 13  5  2  0  0  0
 14  3  1  0  0  0
M  END
>  <CHROM.1>
-178.45324781,178.94579157,1.56267331,18.26778842,-11.69573124,-8.73014149
2.34065307,0.58908453,-0.54814260

>  <Name>
ligand.pdb

>  <RI>
2.24188e+07

>  <Rbt.Current_Directory>
/home/v/Downloads/rDock_2013.1_src/bin

>  <Rbt.Executable>
rbdock ($Id: //depot/dev/client3/rdock/2013.1/src/exe/rbdock.cxx#4 $)

>  <Rbt.Library>
libRbt.so (2013.1, Build901 2013/11/27)

>  <Rbt.Parameter_File>
/home/v/Downloads/rDock_2013.1_src/data/scripts/dock_solv.prm

>  <Rbt.Receptor>
/home/v/Desktop/r.prm

>  <SCORE>
7.49269

>  <SCORE.INTER>
8.4

>  <SCORE.INTER.CONST>
1

>  <SCORE.INTER.POLAR>
0

>  <SCORE.INTER.ROT>
3

>  <SCORE.INTER.SOLV>
0

>  <SCORE.INTER.VDW>
0

>  <SCORE.INTER.norm>
0.6

>  <SCORE.INTRA>
-0.907314

>  <SCORE.INTRA.DIHEDRAL>
-1.60698

>  <SCORE.INTRA.DIHEDRAL.0>
1.6411

>  <SCORE.INTRA.POLAR>
0

>  <SCORE.INTRA.POLAR.0>
0

>  <SCORE.INTRA.REPUL>
0

>  <SCORE.INTRA.REPUL.0>
0

>  <SCORE.INTRA.SOLV>
-0.29589

>  <SCORE.INTRA.SOLV.lig_0>
-16.0602

>  <SCORE.INTRA.VDW>
0.0441216

>  <SCORE.INTRA.VDW.0>
-0.639572

>  <SCORE.INTRA.norm>
-0.0648081

>  <SCORE.RESTR>
0

>  <SCORE.RESTR.CAVITY>
0

>  <SCORE.RESTR.norm>
0

>  <SCORE.SYSTEM>
0

>  <SCORE.SYSTEM.CONST>
0

>  <SCORE.SYSTEM.DIHEDRAL>
0

>  <SCORE.SYSTEM.SOLV>
0

>  <SCORE.SYSTEM.norm>
0

>  <SCORE.heavy>
14

>  <SCORE.norm>
0.535192

$$$$
ligand.pdb
  rDOCK(R)          3D
libRbt.so/2013.1/901 2013/11/27
 14 14  0  0  0  0  0  0  0  0999 V2000
   12.2430  -12.3759  -11.1450 C   0  0  0  0  0  0
   20.0473  -12.2209   -9.5761 C   0  0  0  0  0  0
   13.3761  -11.5244  -10.5956 C   0  0  0  0  0  0
   14.7076  -12.2716  -10.5289 C   0  0  0  0  0  0
   17.0360  -11.9169   -9.8255 C   0  0  0  0  0  0
   19.3243  -11.0985   -9.1896 C   0  0  0  0  0  0
   19.9949  -10.0247   -8.6217 C   0  0  0  0  0  0
   21.3715  -10.0703   -8.4577 C   0  0  0  0  0  0
   22.0804  -11.1902   -8.8294 C   0  0  0  0  0  0
   21.4223  -12.2583   -9.3912 C   0  0  0  0  0  0
   15.7742  -11.4549   -9.9753 N   0  0  0  0  0  0
   17.9196  -10.9897   -9.3314 N   0  0  0  0  0  0
   17.3568  -13.0800  -10.1026 O   0  0  0  0  0  0
   13.5410  -10.3604  -11.3949 O   0  0  0  0  0  0
  2 10  2  0  0  0
  2  6  1  0  0  0
  3  4  1  0  0  0
  3  1  1  0  0  0
  4 11  1  0  0  0
  5 11  1  0  0  0
  5 12  1  0  0  0
  6  7  2  0  0  0
  7  8  1  0  0  0
  9  8  2  0  0  0
 10  9  1  0  0  0
 12  6  1  0  0  0
 13  5  2  0  0  0
 14  3  1  0  0  0
M  END
>  <CHROM.1>
-178.76229715,-179.98407850,1.16539513,17.43333377,-11.50609593,-9.83317314
-3.02753752,-0.23811968,0.18379669

>  <Name>
ligand.pdb

>  <RI>
2.24188e+07

>  <Rbt.Current_Directory>
/home/v/Downloads/rDock_2013.1_src/bin

>  <Rbt.Executable>
rbdock ($Id: //depot/dev/client3/rdock/2013.1/src/exe/rbdock.cxx#4 $)

>  <Rbt.Library>
libRbt.so (2013.1, Build901 2013/11/27)

>  <Rbt.Parameter_File>
/home/v/Downloads/rDock_2013.1_src/data/scripts/dock_solv.prm

>  <Rbt.Receptor>
/home/v/Desktop/r.prm

>  <SCORE>
7.49219

>  <SCORE.INTER>
8.4

>  <SCORE.INTER.CONST>
1

>  <SCORE.INTER.POLAR>
0

>  <SCORE.INTER.ROT>
3

>  <SCORE.INTER.SOLV>
0

>  <SCORE.INTER.VDW>
0

>  <SCORE.INTER.norm>
0.6

>  <SCORE.INTRA>
-0.907812

>  <SCORE.INTRA.DIHEDRAL>
-1.61386

>  <SCORE.INTRA.DIHEDRAL.0>
1.6411

>  <SCORE.INTRA.POLAR>
0

>  <SCORE.INTRA.POLAR.0>
0

>  <SCORE.INTRA.REPUL>
0

>  <SCORE.INTRA.REPUL.0>
0

>  <SCORE.INTRA.SOLV>
-0.29308

>  <SCORE.INTRA.SOLV.lig_0>
-16.0602

>  <SCORE.INTRA.VDW>
0.0456582

>  <SCORE.INTRA.VDW.0>
-0.639572

>  <SCORE.INTRA.norm>
-0.0648437

>  <SCORE.RESTR>
0

>  <SCORE.RESTR.CAVITY>
0

>  <SCORE.RESTR.norm>
0

>  <SCORE.SYSTEM>
0

>  <SCORE.SYSTEM.CONST>
0

>  <SCORE.SYSTEM.DIHEDRAL>
0

>  <SCORE.SYSTEM.SOLV>
0

>  <SCORE.SYSTEM.norm>
0

>  <SCORE.heavy>
14

>  <SCORE.norm>
0.535156

$$$$
ligand.pdb
  rDOCK(R)          3D
libRbt.so/2013.1/901 2013/11/27
 14 14  0  0  0  0  0  0  0  0999 V2000
   19.8341  -15.6322   -7.7143 C   0  0  0  0  0  0
   14.1640  -11.8571  -11.8352 C   0  0  0  0  0  0
   19.3707  -15.2449   -9.1093 C   0  0  0  0  0  0
   18.0184  -14.5330   -9.1143 C   0  0  0  0  0  0
   16.4080  -13.5545  -10.6926 C   0  0  0  0  0  0
   15.1376  -12.5035  -12.5878 C   0  0  0  0  0  0
   15.0974  -12.4073  -13.9714 C   0  0  0  0  0  0
   14.1045  -11.6618  -14.5899 C   0  0  0  0  0  0
   13.1348  -11.0354  -13.8400 C   0  0  0  0  0  0
   13.1676  -11.1278  -12.4689 C   0  0  0  0  0  0
   17.5743  -14.1963  -10.4560 N   0  0  0  0  0  0
   16.1769  -13.2776  -12.0172 N   0  0  0  0  0  0
   15.6173  -13.2549   -9.7884 O   0  0  0  0  0  0
   20.3363  -14.4032   -9.7260 O   0  0  0  0  0  0
  2 10  2  0  0  0
  2  6  1  0  0  0
  3  4  1  0  0  0
  3  1  1  0  0  0
  4 11  1  0  0  0
  5 11  1  0  0  0
  5 12  1  0  0  0
  6  7  2  0  0  0
  7  8  1  0  0  0
  9  8  2  0  0  0
 10  9  1  0  0  0
 12  6  1  0  0  0
 13  5  2  0  0  0
 14  3  1  0  0  0
M  END
>  <CHROM.1>
-178.68648907,-179.55816121,1.35930122,16.40616272,-13.25211209,-11.17867135
0.71062316,-0.40291155,1.78277001

>  <Name>
ligand.pdb

>  <RI>
2.24188e+07

>  <Rbt.Current_Directory>
/home/v/Downloads/rDock_2013.1_src/bin

>  <Rbt.Executable>
rbdock ($Id: //depot/dev/client3/rdock/2013.1/src/exe/rbdock.cxx#4 $)

>  <Rbt.Library>
libRbt.so (2013.1, Build901 2013/11/27)

>  <Rbt.Parameter_File>
/home/v/Downloads/rDock_2013.1_src/data/scripts/dock_solv.prm

>  <Rbt.Receptor>
/home/v/Desktop/r.prm

>  <SCORE>
7.49258

>  <SCORE.INTER>
8.4

>  <SCORE.INTER.CONST>
1

>  <SCORE.INTER.POLAR>
0

>  <SCORE.INTER.ROT>
3

>  <SCORE.INTER.SOLV>
0

>  <SCORE.INTER.VDW>
0

>  <SCORE.INTER.norm>
0.6

>  <SCORE.INTRA>
-0.907421

>  <SCORE.INTRA.DIHEDRAL>
-1.61174

>  <SCORE.INTRA.DIHEDRAL.0>
1.6411

>  <SCORE.INTRA.POLAR>
0

>  <SCORE.INTRA.POLAR.0>
0

>  <SCORE.INTRA.REPUL>
0

>  <SCORE.INTRA.REPUL.0>
0

>  <SCORE.INTRA.SOLV>
-0.292829

>  <SCORE.INTRA.SOLV.lig_0>
-16.0602

>  <SCORE.INTRA.VDW>
0.0448647

>  <SCORE.INTRA.VDW.0>
-0.639572

>  <SCORE.INTRA.norm>
-0.0648158

>  <SCORE.RESTR>
0

>  <SCORE.RESTR.CAVITY>
0

>  <SCORE.RESTR.norm>
0

>  <SCORE.SYSTEM>
0

>  <SCORE.SYSTEM.CONST>
0

>  <SCORE.SYSTEM.DIHEDRAL>
0

>  <SCORE.SYSTEM.SOLV>
0

>  <SCORE.SYSTEM.norm>
0

>  <SCORE.heavy>
14

>  <SCORE.norm>
0.535184

$$$$
ligand.pdb
  rDOCK(R)          3D
libRbt.so/2013.1/901 2013/11/27
 14 14  0  0  0  0  0  0  0  0999 V2000
   15.4503   -5.8707  -12.8525 C   0  0  0  0  0  0
   15.3879  -11.5379   -7.2586 C   0  0  0  0  0  0
   15.9798   -7.2465  -12.4818 C   0  0  0  0  0  0
   15.5475   -7.6981  -11.0873 C   0  0  0  0  0  0
   15.8388   -9.5872   -9.5419 C   0  0  0  0  0  0
   16.2097  -11.7701   -8.3553 C   0  0  0  0  0  0
   16.9055  -12.9677   -8.4373 C   0  0  0  0  0  0
   16.7675  -13.9238   -7.4419 C   0  0  0  0  0  0
   15.9630  -13.6825   -6.3512 C   0  0  0  0  0  0
   15.2720  -12.4975   -6.2627 C   0  0  0  0  0  0
   16.0871   -9.0000  -10.7342 N   0  0  0  0  0  0
   16.3918  -10.8362   -9.4040 N   0  0  0  0  0  0
   15.1776   -9.0356   -8.6526 O   0  0  0  0  0  0
   15.5424   -8.2081  -13.4332 O   0  0  0  0  0  0
  2 10  2  0  0  0
  2  6  1  0  0  0
  3  4  1  0  0  0
  3  1  1  0  0  0
  4 11  1  0  0  0
  5 11  1  0  0  0
  5 12  1  0  0  0
  6  7  2  0  0  0
  7  8  1  0  0  0
  9  8  2  0  0  0
 10  9  1  0  0  0
 12  6  1  0  0  0
 13  5  2  0  0  0
 14  3  1  0  0  0
M  END
>  <CHROM.1>
-178.61410044,179.53945859,0.45350777,15.87338661,-10.15631405,-9.55547855
1.70146516,1.10157820,-0.86349403

>  <Name>
ligand.pdb

>  <RI>
2.24188e+07

>  <Rbt.Current_Directory>
/home/v/Downloads/rDock_2013.1_src/bin

>  <Rbt.Executable>
rbdock ($Id: //depot/dev/client3/rdock/2013.1/src/exe/rbdock.cxx#4 $)

>  <Rbt.Library>
libRbt.so (2013.1, Build901 2013/11/27)

>  <Rbt.Parameter_File>
/home/v/Downloads/rDock_2013.1_src/data/scripts/dock_solv.prm

>  <Rbt.Receptor>
/home/v/Desktop/r.prm

>  <SCORE>
7.492

>  <SCORE.INTER>
8.4

>  <SCORE.INTER.CONST>
1

>  <SCORE.INTER.POLAR>
0

>  <SCORE.INTER.ROT>
3

>  <SCORE.INTER.SOLV>
0

>  <SCORE.INTER.VDW>
0

>  <SCORE.INTER.norm>
0.6

>  <SCORE.INTRA>
-0.908005

>  <SCORE.INTRA.DIHEDRAL>
-1.61531

>  <SCORE.INTRA.DIHEDRAL.0>
1.6411

>  <SCORE.INTRA.POLAR>
0

>  <SCORE.INTRA.POLAR.0>
0

>  <SCORE.INTRA.REPUL>
0

>  <SCORE.INTRA.REPUL.0>
0

>  <SCORE.INTRA.SOLV>
-0.294375

>  <SCORE.INTRA.SOLV.lig_0>
-16.0602

>  <SCORE.INTRA.VDW>
0.0468396

>  <SCORE.INTRA.VDW.0>
-0.639572

>  <SCORE.INTRA.norm>
-0.0648575

>  <SCORE.RESTR>
0

>  <SCORE.RESTR.CAVITY>
0

>  <SCORE.RESTR.norm>
0

>  <SCORE.SYSTEM>
0

>  <SCORE.SYSTEM.CONST>
0

>  <SCORE.SYSTEM.DIHEDRAL>
0

>  <SCORE.SYSTEM.SOLV>
0

>  <SCORE.SYSTEM.norm>
0

>  <SCORE.heavy>
14

>  <SCORE.norm>
0.535143

$$$$
ligand.pdb
  rDOCK(R)          3D
libRbt.so/2013.1/901 2013/11/27
 14 14  0  0  0  0  0  0  0  0999 V2000
   21.0706  -12.0973   -6.8104 C   0  0  0  0  0  0
   16.1946   -6.7334  -10.1057 C   0  0  0  0  0  0
   19.6243  -11.6405   -6.9109 C   0  0  0  0  0  0
   19.4533  -10.3768   -7.7532 C   0  0  0  0  0  0
   17.6920   -8.8371   -8.5076 C   0  0  0  0  0  0
   15.6064   -7.6364   -9.2279 C   0  0  0  0  0  0
   14.2338   -7.5905   -9.0296 C   0  0  0  0  0  0
   13.4614   -6.6628   -9.7127 C   0  0  0  0  0  0
   14.0512   -5.7618  -10.5702 C   0  0  0  0  0  0
   15.4107   -5.8005  -10.7702 C   0  0  0  0  0  0
   18.0693   -9.9404   -7.8232 N   0  0  0  0  0  0
   16.3386   -8.6073   -8.5024 N   0  0  0  0  0  0
   18.5040   -8.0973   -9.0785 O   0  0  0  0  0  0
   18.8250  -12.6761   -7.4673 O   0  0  0  0  0  0
  2 10  2  0  0  0
  2  6  1  0  0  0
  3  4  1  0  0  0
  3  1  1  0  0  0
  4 11  1  0  0  0
  5 11  1  0  0  0
  5 12  1  0  0  0
  6  7  2  0  0  0
  7  8  1  0  0  0
  9  8  2  0  0  0
 10  9  1  0  0  0
 12  6  1  0  0  0
 13  5  2  0  0  0
 14  3  1  0  0  0
M  END
>  <CHROM.1>
-179.10818801,179.46994666,0.47215540,17.14999655,-8.85289024,-8.68644298
-0.85280064,0.00900076,-0.50233135

>  <Name>
ligand.pdb

>  <RI>
2.24188e+07

>  <Rbt.Current_Directory>
/home/v/Downloads/rDock_2013.1_src/bin

>  <Rbt.Executable>
rbdock ($Id: //depot/dev/client3/rdock/2013.1/src/exe/rbdock.cxx#4 $)

>  <Rbt.Library>
libRbt.so (2013.1, Build901 2013/11/27)

>  <Rbt.Parameter_File>
/home/v/Downloads/rDock_2013.1_src/data/scripts/dock_solv.prm

>  <Rbt.Receptor>
/home/v/Desktop/r.prm

>  <SCORE>
7.49228

>  <SCORE.INTER>
8.4

>  <SCORE.INTER.CONST>
1

>  <SCORE.INTER.POLAR>
0

>  <SCORE.INTER.ROT>
3

>  <SCORE.INTER.SOLV>
0

>  <SCORE.INTER.VDW>
0

>  <SCORE.INTER.norm>
0.6

>  <SCORE.INTRA>
-0.907719

>  <SCORE.INTRA.DIHEDRAL>
-1.61966

>  <SCORE.INTRA.DIHEDRAL.0>
1.6411

>  <SCORE.INTRA.POLAR>
0

>  <SCORE.INTRA.POLAR.0>
0

>  <SCORE.INTRA.REPUL>
0

>  <SCORE.INTRA.REPUL.0>
0

>  <SCORE.INTRA.SOLV>
-0.292271

>  <SCORE.INTRA.SOLV.lig_0>
-16.0602

>  <SCORE.INTRA.VDW>
0.0482459

>  <SCORE.INTRA.VDW.0>
-0.639572

>  <SCORE.INTRA.norm>
-0.0648371

>  <SCORE.RESTR>
0

>  <SCORE.RESTR.CAVITY>
0

>  <SCORE.RESTR.norm>
0

>  <SCORE.SYSTEM>
0

>  <SCORE.SYSTEM.CONST>
0

>  <SCORE.SYSTEM.DIHEDRAL>
0

>  <SCORE.SYSTEM.SOLV>
0

>  <SCORE.SYSTEM.norm>
0

>  <SCORE.heavy>
14

>  <SCORE.norm>
0.535163

$$$$
ligand.pdb
  rDOCK(R)          3D
libRbt.so/2013.1/901 2013/11/27
 14 14  0  0  0  0  0  0  0  0999 V2000
    9.8991   -4.7522  -14.5420 C   0  0  0  0  0  0
   12.1870  -11.6864  -11.3651 C   0  0  0  0  0  0
   11.0116   -5.4548  -13.7809 C   0  0  0  0  0  0
   10.6752   -6.9044  -13.4328 C   0  0  0  0  0  0
   11.6436   -8.8361  -12.2612 C   0  0  0  0  0  0
   13.0480  -10.6122  -11.1732 C   0  0  0  0  0  0
   14.2489  -10.8185  -10.5095 C   0  0  0  0  0  0
   14.5876  -12.0857  -10.0586 C   0  0  0  0  0  0
   13.7246  -13.1429  -10.2392 C   0  0  0  0  0  0
   12.5325  -12.9454  -10.8944 C   0  0  0  0  0  0
   11.7362   -7.5549  -12.6830 N   0  0  0  0  0  0
   12.7613   -9.2962  -11.6103 N   0  0  0  0  0  0
   10.6311   -9.5252  -12.4413 O   0  0  0  0  0  0
   12.2118   -5.4310  -14.5425 O   0  0  0  0  0  0
  2 10  2  0  0  0
  2  6  1  0  0  0
  3  4  1  0  0  0
  3  1  1  0  0  0
  4 11  1  0  0  0
  5 11  1  0  0  0
  5 12  1  0  0  0
  6  7  2  0  0  0
  7  8  1  0  0  0
  9  8  2  0  0  0
 10  9  1  0  0  0
 12  6  1  0  0  0
 13  5  2  0  0  0
 14  3  1  0  0  0
M  END
>  <CHROM.1>
-178.86190625,179.40903621,0.54585287,12.14909619,-9.09051853,-12.18980296
1.91976059,-0.27731906,-0.39277244

>  <Name>
ligand.pdb

>  <RI>
2.24188e+07

>  <Rbt.Current_Directory>
/home/v/Downloads/rDock_2013.1_src/bin

>  <Rbt.Executable>
rbdock ($Id: //depot/dev/client3/rdock/2013.1/src/exe/rbdock.cxx#4 $)

>  <Rbt.Library>
libRbt.so (2013.1, Build901 2013/11/27)

>  <Rbt.Parameter_File>
/home/v/Downloads/rDock_2013.1_src/data/scripts/dock_solv.prm

>  <Rbt.Receptor>
/home/v/Desktop/r.prm

>  <SCORE>
7.492

>  <SCORE.INTER>
8.4

>  <SCORE.INTER.CONST>
1

>  <SCORE.INTER.POLAR>
0

>  <SCORE.INTER.ROT>
3

>  <SCORE.INTER.SOLV>
0

>  <SCORE.INTER.VDW>
0

>  <SCORE.INTER.norm>
0.6

>  <SCORE.INTRA>
-0.907995

>  <SCORE.INTRA.DIHEDRAL>
-1.61736

>  <SCORE.INTRA.DIHEDRAL.0>
1.6411

>  <SCORE.INTRA.POLAR>
0

>  <SCORE.INTRA.POLAR.0>
0

>  <SCORE.INTRA.REPUL>
0

>  <SCORE.INTRA.REPUL.0>
0

>  <SCORE.INTRA.SOLV>
-0.293445

>  <SCORE.INTRA.SOLV.lig_0>
-16.0602

>  <SCORE.INTRA.VDW>
0.0474068

>  <SCORE.INTRA.VDW.0>
-0.639572

>  <SCORE.INTRA.norm>
-0.0648568

>  <SCORE.RESTR>
0

>  <SCORE.RESTR.CAVITY>
0

>  <SCORE.RESTR.norm>
0

>  <SCORE.SYSTEM>
0

>  <SCORE.SYSTEM.CONST>
0

>  <SCORE.SYSTEM.DIHEDRAL>
0

>  <SCORE.SYSTEM.SOLV>
0

>  <SCORE.SYSTEM.norm>
0

>  <SCORE.heavy>
14

>  <SCORE.norm>
0.535143

$$$$
ligand.pdb
  rDOCK(R)          3D
libRbt.so/2013.1/901 2013/11/27
 14 14  0  0  0  0  0  0  0  0999 V2000
   11.8307  -12.0306  -12.7716 C   0  0  0  0  0  0
   14.8135   -4.6561  -12.4199 C   0  0  0  0  0  0
   12.8455  -11.1409  -12.0721 C   0  0  0  0  0  0
   12.8936   -9.7244  -12.6439 C   0  0  0  0  0  0
   14.1078   -7.6088  -12.3412 C   0  0  0  0  0  0
   15.4097   -5.5967  -11.5881 C   0  0  0  0  0  0
   16.4235   -5.1947  -10.7303 C   0  0  0  0  0  0
   16.8227   -3.8668  -10.6966 C   0  0  0  0  0  0
   16.2381   -2.9424  -11.5327 C   0  0  0  0  0  0
   15.2344   -3.3340  -12.3863 C   0  0  0  0  0  0
   13.8849   -8.8932  -11.9826 N   0  0  0  0  0  0
   15.0469   -6.9654  -11.5739 N   0  0  0  0  0  0
   13.5193   -7.0697  -13.2875 O   0  0  0  0  0  0
   12.5512  -11.0668  -10.6832 O   0  0  0  0  0  0
  2 10  2  0  0  0
  2  6  1  0  0  0
  3  4  1  0  0  0
  3  1  1  0  0  0
  4 11  1  0  0  0
  5 11  1  0  0  0
  5 12  1  0  0  0
  6  7  2  0  0  0
  7  8  1  0  0  0
  9  8  2  0  0  0
 10  9  1  0  0  0
 12  6  1  0  0  0
 13  5  2  0  0  0
 14  3  1  0  0  0
M  END
>  <CHROM.1>
-178.91826763,179.14522135,1.01277309,14.32079475,-7.28801254,-11.92130313
2.33449989,0.88538074,2.58044045

>  <Name>
ligand.pdb

>  <RI>
2.24188e+07

>  <Rbt.Current_Directory>
/home/v/Downloads/rDock_2013.1_src/bin

>  <Rbt.Executable>
rbdock ($Id: //depot/dev/client3/rdock/2013.1/src/exe/rbdock.cxx#4 $)

>  <Rbt.Library>
libRbt.so (2013.1, Build901 2013/11/27)

>  <Rbt.Parameter_File>
/home/v/Downloads/rDock_2013.1_src/data/scripts/dock_solv.prm

>  <Rbt.Receptor>
/home/v/Desktop/r.prm

>  <SCORE>
7.49214

>  <SCORE.INTER>
8.4

>  <SCORE.INTER.CONST>
1

>  <SCORE.INTER.POLAR>
0

>  <SCORE.INTER.ROT>
3

>  <SCORE.INTER.SOLV>
0

>  <SCORE.INTER.VDW>
0

>  <SCORE.INTER.norm>
0.6

>  <SCORE.INTRA>
-0.907856

>  <SCORE.INTRA.DIHEDRAL>
-1.61553

>  <SCORE.INTRA.DIHEDRAL.0>
1.6411

>  <SCORE.INTRA.POLAR>
0

>  <SCORE.INTRA.POLAR.0>
0

>  <SCORE.INTRA.REPUL>
0

>  <SCORE.INTRA.REPUL.0>
0

>  <SCORE.INTRA.SOLV>
-0.293543

>  <SCORE.INTRA.SOLV.lig_0>
-16.0602

>  <SCORE.INTRA.VDW>
0.0466816

>  <SCORE.INTRA.VDW.0>
-0.639572

>  <SCORE.INTRA.norm>
-0.0648469

>  <SCORE.RESTR>
0

>  <SCORE.RESTR.CAVITY>
0

>  <SCORE.RESTR.norm>
0

>  <SCORE.SYSTEM>
0

>  <SCORE.SYSTEM.CONST>
0

>  <SCORE.SYSTEM.DIHEDRAL>
0

>  <SCORE.SYSTEM.SOLV>
0

>  <SCORE.SYSTEM.norm>
0

>  <SCORE.heavy>
14

>  <SCORE.norm>
0.535153

$$$$
ligand.pdb
  rDOCK(R)          3D
libRbt.so/2013.1/901 2013/11/27
 14 14  0  0  0  0  0  0  0  0999 V2000
   21.3072  -12.4002   -5.1308 C   0  0  0  0  0  0
   18.6080  -10.3770  -12.3434 C   0  0  0  0  0  0
   21.7220  -12.0175   -6.5423 C   0  0  0  0  0  0
   20.5336  -11.8301   -7.4848 C   0  0  0  0  0  0
   20.0572  -11.2842   -9.8336 C   0  0  0  0  0  0
   19.9867  -10.5037  -12.2203 C   0  0  0  0  0  0
   20.7920  -10.2211  -13.3143 C   0  0  0  0  0  0
   20.2241   -9.8035  -14.5088 C   0  0  0  0  0  0
   18.8571   -9.6933  -14.6290 C   0  0  0  0  0  0
   18.0532   -9.9732  -13.5498 C   0  0  0  0  0  0
   20.9460  -11.4888   -8.8355 N   0  0  0  0  0  0
   20.6272  -10.9237  -11.0293 N   0  0  0  0  0  0
   18.8369  -11.4222   -9.6776 O   0  0  0  0  0  0
   22.4829  -10.8169   -6.5166 O   0  0  0  0  0  0
  2 10  2  0  0  0
  2  6  1  0  0  0
  3  4  1  0  0  0
  3  1  1  0  0  0
  4 11  1  0  0  0
  5 11  1  0  0  0
  5 12  1  0  0  0
  6  7  2  0  0  0
  7  8  1  0  0  0
  9  8  2  0  0  0
 10  9  1  0  0  0
 12  6  1  0  0  0
 13  5  2  0  0  0
 14  3  1  0  0  0
M  END
>  <CHROM.1>
-178.94412379,179.67588431,0.81031480,20.25165725,-10.94138603,-10.24693430
1.28606482,0.18210052,1.86188050

>  <Name>
ligand.pdb

>  <RI>
2.24188e+07

>  <Rbt.Current_Directory>
/home/v/Downloads/rDock_2013.1_src/bin

>  <Rbt.Executable>
rbdock ($Id: //depot/dev/client3/rdock/2013.1/src/exe/rbdock.cxx#4 $)

>  <Rbt.Library>
libRbt.so (2013.1, Build901 2013/11/27)

>  <Rbt.Parameter_File>
/home/v/Downloads/rDock_2013.1_src/data/scripts/dock_solv.prm

>  <Rbt.Receptor>
/home/v/Desktop/r.prm

>  <SCORE>
7.49206

>  <SCORE.INTER>
8.4

>  <SCORE.INTER.CONST>
1

>  <SCORE.INTER.POLAR>
0

>  <SCORE.INTER.ROT>
3

>  <SCORE.INTER.SOLV>
0

>  <SCORE.INTER.VDW>
0

>  <SCORE.INTER.norm>
0.6

>  <SCORE.INTRA>
-0.907938

>  <SCORE.INTRA.DIHEDRAL>
-1.61724

>  <SCORE.INTRA.DIHEDRAL.0>
1.6411

>  <SCORE.INTRA.POLAR>
0

>  <SCORE.INTRA.POLAR.0>
0

>  <SCORE.INTRA.REPUL>
0

>  <SCORE.INTRA.REPUL.0>
0

>  <SCORE.INTRA.SOLV>
-0.292726

>  <SCORE.INTRA.SOLV.lig_0>
-16.0602

>  <SCORE.INTRA.VDW>
0.0470465

>  <SCORE.INTRA.VDW.0>
-0.639572

>  <SCORE.INTRA.norm>
-0.0648527

>  <SCORE.RESTR>
0

>  <SCORE.RESTR.CAVITY>
0

>  <SCORE.RESTR.norm>
0

>  <SCORE.SYSTEM>
0

>  <SCORE.SYSTEM.CONST>
0

>  <SCORE.SYSTEM.DIHEDRAL>
0

>  <SCORE.SYSTEM.SOLV>
0

>  <SCORE.SYSTEM.norm>
0

>  <SCORE.heavy>
14

>  <SCORE.norm>
0.535147

$$$$
ligand.pdb
  rDOCK(R)          3D
libRbt.so/2013.1/901 2013/11/27
 14 14  0  0  0  0  0  0  0  0999 V2000
   18.1285  -10.3159   -6.6205 C   0  0  0  0  0  0
   13.0842   -5.3899  -10.3229 C   0  0  0  0  0  0
   17.3132   -9.0416   -6.4717 C   0  0  0  0  0  0
   16.5711   -8.6536   -7.7501 C   0  0  0  0  0  0
   15.1060   -6.8800   -8.6158 C   0  0  0  0  0  0
   13.4864   -5.0090   -9.0480 C   0  0  0  0  0  0
   12.9552   -3.8561   -8.4876 C   0  0  0  0  0  0
   12.0238   -3.1051   -9.1893 C   0  0  0  0  0  0
   11.6398   -3.4796  -10.4571 C   0  0  0  0  0  0
   12.1632   -4.6197  -11.0191 C   0  0  0  0  0  0
   15.8271   -7.4142   -7.6046 N   0  0  0  0  0  0
   14.4312   -5.7324   -8.2805 N   0  0  0  0  0  0
   15.0704   -7.3826   -9.7466 O   0  0  0  0  0  0
   16.3699   -9.1884   -5.4183 O   0  0  0  0  0  0
  2 10  2  0  0  0
  2  6  1  0  0  0
  3  4  1  0  0  0
  3  1  1  0  0  0
  4 11  1  0  0  0
  5 11  1  0  0  0
  5 12  1  0  0  0
  6  7  2  0  0  0
  7  8  1  0  0  0
  9  8  2  0  0  0
 10  9  1  0  0  0
 12  6  1  0  0  0
 13  5  2  0  0  0
 14  3  1  0  0  0
M  END
>  <CHROM.1>
-178.35769023,179.49632120,0.31386909,14.67552959,-6.55042977,-8.44053955
-0.22755881,0.89720935,-1.84219097

>  <Name>
ligand.pdb

>  <RI>
2.24188e+07

>  <Rbt.Current_Directory>
/home/v/Downloads/rDock_2013.1_src/bin

>  <Rbt.Executable>
rbdock ($Id: //depot/dev/client3/rdock/2013.1/src/exe/rbdock.cxx#4 $)

>  <Rbt.Library>
libRbt.so (2013.1, Build901 2013/11/27)

>  <Rbt.Parameter_File>
/home/v/Downloads/rDock_2013.1_src/data/scripts/dock_solv.prm

>  <Rbt.Receptor>
/home/v/Desktop/r.prm

>  <SCORE>
7.49227

>  <SCORE.INTER>
8.4

>  <SCORE.INTER.CONST>
1

>  <SCORE.INTER.POLAR>
0

>  <SCORE.INTER.ROT>
3

>  <SCORE.INTER.SOLV>
0

>  <SCORE.INTER.VDW>
0

>  <SCORE.INTER.norm>
0.6

>  <SCORE.INTRA>
-0.90773

>  <SCORE.INTRA.DIHEDRAL>
-1.61266

>  <SCORE.INTRA.DIHEDRAL.0>
1.6411

>  <SCORE.INTRA.POLAR>
0

>  <SCORE.INTRA.POLAR.0>
0

>  <SCORE.INTRA.REPUL>
0

>  <SCORE.INTRA.REPUL.0>
0

>  <SCORE.INTRA.SOLV>
-0.295575

>  <SCORE.INTRA.SOLV.lig_0>
-16.0602

>  <SCORE.INTRA.VDW>
0.0463878

>  <SCORE.INTRA.VDW.0>
-0.639572

>  <SCORE.INTRA.norm>
-0.0648379

>  <SCORE.RESTR>
0

>  <SCORE.RESTR.CAVITY>
0

>  <SCORE.RESTR.norm>
0

>  <SCORE.SYSTEM>
0

>  <SCORE.SYSTEM.CONST>
0

>  <SCORE.SYSTEM.DIHEDRAL>
0

>  <SCORE.SYSTEM.SOLV>
0

>  <SCORE.SYSTEM.norm>
0

>  <SCORE.heavy>
14

>  <SCORE.norm>
0.535162

$$$$
ligand.pdb
  rDOCK(R)          3D
libRbt.so/2013.1/901 2013/11/27
 14 14  0  0  0  0  0  0  0  0999 V2000
   14.9180   -1.8453  -12.1531 C   0  0  0  0  0  0
   12.2856   -9.0951  -10.1762 C   0  0  0  0  0  0
   13.8095   -2.8610  -12.3776 C   0  0  0  0  0  0
   14.0475   -4.1787  -11.6409 C   0  0  0  0  0  0
   13.0119   -6.3884  -11.3463 C   0  0  0  0  0  0
   11.5504   -8.4215  -11.1446 C   0  0  0  0  0  0
   10.4045   -9.0132  -11.6567 C   0  0  0  0  0  0
    9.9945  -10.2548  -11.1938 C   0  0  0  0  0  0
   10.7344  -10.9233  -10.2447 C   0  0  0  0  0  0
   11.8715  -10.3438   -9.7342 C   0  0  0  0  0  0
   12.9980   -5.1515  -11.8922 N   0  0  0  0  0  0
   11.9147   -7.1528  -11.6570 N   0  0  0  0  0  0
   13.9423   -6.7930  -10.6370 O   0  0  0  0  0  0
   12.5627   -2.3197  -11.9613 O   0  0  0  0  0  0
  2 10  2  0  0  0
  2  6  1  0  0  0
  3  4  1  0  0  0
  3  1  1  0  0  0
  4 11  1  0  0  0
  5 11  1  0  0  0
  5 12  1  0  0  0
  6  7  2  0  0  0
  7  8  1  0  0  0
  9  8  2  0  0  0
 10  9  1  0  0  0
 12  6  1  0  0  0
 13  5  2  0  0  0
 14  3  1  0  0  0
M  END
>  <CHROM.1>
-178.51175166,179.61944658,1.47524833,12.49399220,-6.61973775,-11.29008474
-1.16713178,0.39150712,2.78543018

>  <Name>
ligand.pdb

>  <RI>
2.24188e+07

>  <Rbt.Current_Directory>
/home/v/Downloads/rDock_2013.1_src/bin

>  <Rbt.Executable>
rbdock ($Id: //depot/dev/client3/rdock/2013.1/src/exe/rbdock.cxx#4 $)

>  <Rbt.Library>
libRbt.so (2013.1, Build901 2013/11/27)

>  <Rbt.Parameter_File>
/home/v/Downloads/rDock_2013.1_src/data/scripts/dock_solv.prm

>  <Rbt.Receptor>
/home/v/Desktop/r.prm

>  <SCORE>
7.49241

>  <SCORE.INTER>
8.4

>  <SCORE.INTER.CONST>
1

>  <SCORE.INTER.POLAR>
0

>  <SCORE.INTER.ROT>
3

>  <SCORE.INTER.SOLV>
0

>  <SCORE.INTER.VDW>
0

>  <SCORE.INTER.norm>
0.6

>  <SCORE.INTRA>
-0.907587

>  <SCORE.INTRA.DIHEDRAL>
-1.60909

>  <SCORE.INTRA.DIHEDRAL.0>
1.6411

>  <SCORE.INTRA.POLAR>
0

>  <SCORE.INTRA.POLAR.0>
0

>  <SCORE.INTRA.REPUL>
0

>  <SCORE.INTRA.REPUL.0>
0

>  <SCORE.INTRA.SOLV>
-0.294743

>  <SCORE.INTRA.SOLV.lig_0>
-16.0602

>  <SCORE.INTRA.VDW>
0.0443298

>  <SCORE.INTRA.VDW.0>
-0.639572

>  <SCORE.INTRA.norm>
-0.0648277

>  <SCORE.RESTR>
0

>  <SCORE.RESTR.CAVITY>
0

>  <SCORE.RESTR.norm>
0

>  <SCORE.SYSTEM>
0

>  <SCORE.SYSTEM.CONST>
0

>  <SCORE.SYSTEM.DIHEDRAL>
0

>  <SCORE.SYSTEM.SOLV>
0

>  <SCORE.SYSTEM.norm>
0

>  <SCORE.heavy>
14

>  <SCORE.norm>
0.535172

$$$$
ligand.pdb
  rDOCK(R)          3D
libRbt.so/2013.1/901 2013/11/27
 14 14  0  0  0  0  0  0  0  0999 V2000
   10.6654  -13.2413  -11.6763 C   0  0  0  0  0  0
   14.8366   -7.5102  -15.3046 C   0  0  0  0  0  0
   11.6844  -12.1332  -11.4653 C   0  0  0  0  0  0
   12.0870  -11.4356  -12.7641 C   0  0  0  0  0  0
   13.5983   -9.6711  -13.5668 C   0  0  0  0  0  0
   15.0965   -7.6916  -13.9513 C   0  0  0  0  0  0
   16.0032   -6.8533  -13.3186 C   0  0  0  0  0  0
   16.6283   -5.8392  -14.0291 C   0  0  0  0  0  0
   16.3774   -5.6732  -15.3724 C   0  0  0  0  0  0
   15.4816   -6.5011  -16.0060 C   0  0  0  0  0  0
   13.0833  -10.3997  -12.5510 N   0  0  0  0  0  0
   14.4909   -8.7061  -13.1708 N   0  0  0  0  0  0
   13.2941   -9.8697  -14.7502 O   0  0  0  0  0  0
   11.1681  -11.1635  -10.5629 O   0  0  0  0  0  0
  2 10  2  0  0  0
  2  6  1  0  0  0
  3  4  1  0  0  0
  3  1  1  0  0  0
  4 11  1  0  0  0
  5 11  1  0  0  0
  5 12  1  0  0  0
  6  7  2  0  0  0
  7  8  1  0  0  0
  9  8  2  0  0  0
 10  9  1  0  0  0
 12  6  1  0  0  0
 13  5  2  0  0  0
 14  3  1  0  0  0
M  END
>  <CHROM.1>
-178.69822956,178.86463815,1.15243968,13.79127893,-9.16081346,-13.40650441
2.74185318,0.89540955,1.55139004

>  <Name>
ligand.pdb

>  <RI>
2.24188e+07

>  <Rbt.Current_Directory>
/home/v/Downloads/rDock_2013.1_src/bin

>  <Rbt.Executable>
rbdock ($Id: //depot/dev/client3/rdock/2013.1/src/exe/rbdock.cxx#4 $)

>  <Rbt.Library>
libRbt.so (2013.1, Build901 2013/11/27)

>  <Rbt.Parameter_File>
/home/v/Downloads/rDock_2013.1_src/data/scripts/dock_solv.prm

>  <Rbt.Receptor>
/home/v/Desktop/r.prm

>  <SCORE>
7.49225

>  <SCORE.INTER>
8.4

>  <SCORE.INTER.CONST>
1

>  <SCORE.INTER.POLAR>
0

>  <SCORE.INTER.ROT>
3

>  <SCORE.INTER.SOLV>
0

>  <SCORE.INTER.VDW>
0

>  <SCORE.INTER.norm>
0.6

>  <SCORE.INTRA>
-0.907753

>  <SCORE.INTRA.DIHEDRAL>
-1.61224

>  <SCORE.INTRA.DIHEDRAL.0>
1.6411

>  <SCORE.INTRA.POLAR>
0

>  <SCORE.INTRA.POLAR.0>
0

>  <SCORE.INTRA.REPUL>
0

>  <SCORE.INTRA.REPUL.0>
0

>  <SCORE.INTRA.SOLV>
-0.294885

>  <SCORE.INTRA.SOLV.lig_0>
-16.0602

>  <SCORE.INTRA.VDW>
0.0458082

>  <SCORE.INTRA.VDW.0>
-0.639572

>  <SCORE.INTRA.norm>
-0.0648395

>  <SCORE.RESTR>
0

>  <SCORE.RESTR.CAVITY>
0

>  <SCORE.RESTR.norm>
0

>  <SCORE.SYSTEM>
0

>  <SCORE.SYSTEM.CONST>
0

>  <SCORE.SYSTEM.DIHEDRAL>
0

>  <SCORE.SYSTEM.SOLV>
0

>  <SCORE.SYSTEM.norm>
0

>  <SCORE.heavy>
14

>  <SCORE.norm>
0.535161

$$$$
ligand.pdb
  rDOCK(R)          3D
libRbt.so/2013.1/901 2013/11/27
 14 14  0  0  0  0  0  0  0  0999 V2000
   22.8761  -12.1529  -11.3012 C   0  0  0  0  0  0
   15.6695   -9.6303   -9.0405 C   0  0  0  0  0  0
   21.3857  -12.2594  -11.5807 C   0  0  0  0  0  0
   20.5333  -11.4670  -10.5902 C   0  0  0  0  0  0
   18.1742  -10.9839  -10.0971 C   0  0  0  0  0  0
   15.6945  -10.5847  -10.0508 C   0  0  0  0  0  0
   14.5003  -10.9833  -10.6341 C   0  0  0  0  0  0
   13.3010  -10.4223  -10.2207 C   0  0  0  0  0  0
   13.2811   -9.4878   -9.2101 C   0  0  0  0  0  0
   14.4603   -9.0894   -8.6266 C   0  0  0  0  0  0
   19.1103  -11.6064  -10.8483 N   0  0  0  0  0  0
   16.8845  -11.1936  -10.5181 N   0  0  0  0  0  0
   18.4626  -10.2944   -9.1102 O   0  0  0  0  0  0
   21.1044  -11.8037  -12.8976 O   0  0  0  0  0  0
  2 10  2  0  0  0
  2  6  1  0  0  0
  3  4  1  0  0  0
  3  1  1  0  0  0
  4 11  1  0  0  0
  5 11  1  0  0  0
  5 12  1  0  0  0
  6  7  2  0  0  0
  7  8  1  0  0  0
  9  8  2  0  0  0
 10  9  1  0  0  0
 12  6  1  0  0  0
 13  5  2  0  0  0
 14  3  1  0  0  0
M  END
>  <CHROM.1>
-178.48713824,-179.61402560,0.12810244,17.68477098,-10.88359714,-10.37620555
-0.35550763,-0.10176674,1.05969044

>  <Name>
ligand.pdb

>  <RI>
2.24188e+07

>  <Rbt.Current_Directory>
/home/v/Downloads/rDock_2013.1_src/bin

>  <Rbt.Executable>
rbdock ($Id: //depot/dev/client3/rdock/2013.1/src/exe/rbdock.cxx#4 $)

>  <Rbt.Library>
libRbt.so (2013.1, Build901 2013/11/27)

>  <Rbt.Parameter_File>
/home/v/Downloads/rDock_2013.1_src/data/scripts/dock_solv.prm

>  <Rbt.Receptor>
/home/v/Desktop/r.prm

>  <SCORE>
7.49257

>  <SCORE.INTER>
8.4

>  <SCORE.INTER.CONST>
1

>  <SCORE.INTER.POLAR>
0

>  <SCORE.INTER.ROT>
3

>  <SCORE.INTER.SOLV>
0

>  <SCORE.INTER.VDW>
0

>  <SCORE.INTER.norm>
0.6

>  <SCORE.INTRA>
-0.907435

>  <SCORE.INTRA.DIHEDRAL>
-1.61472

>  <SCORE.INTRA.DIHEDRAL.0>
1.6411

>  <SCORE.INTRA.POLAR>
0

>  <SCORE.INTRA.POLAR.0>
0

>  <SCORE.INTRA.REPUL>
0

>  <SCORE.INTRA.REPUL.0>
0

>  <SCORE.INTRA.SOLV>
-0.293783

>  <SCORE.INTRA.SOLV.lig_0>
-16.0602

>  <SCORE.INTRA.VDW>
0.0468156

>  <SCORE.INTRA.VDW.0>
-0.639572

>  <SCORE.INTRA.norm>
-0.0648168

>  <SCORE.RESTR>
0

>  <SCORE.RESTR.CAVITY>
0

>  <SCORE.RESTR.norm>
0

>  <SCORE.SYSTEM>
0

>  <SCORE.SYSTEM.CONST>
0

>  <SCORE.SYSTEM.DIHEDRAL>
0

>  <SCORE.SYSTEM.SOLV>
0

>  <SCORE.SYSTEM.norm>
0

>  <SCORE.heavy>
14

>  <SCORE.norm>
0.535183

$$$$
ligand.pdb
  rDOCK(R)          3D
libRbt.so/2013.1/901 2013/11/27
 14 14  0  0  0  0  0  0  0  0999 V2000
   19.9893   -9.3799  -14.5109 C   0  0  0  0  0  0
   14.3261   -4.0760  -12.7229 C   0  0  0  0  0  0
   19.1935   -8.7575  -13.3751 C   0  0  0  0  0  0
   18.2527   -7.6473  -13.8421 C   0  0  0  0  0  0
   16.6353   -6.0375  -12.9286 C   0  0  0  0  0  0
   14.9366   -4.7052  -11.6442 C   0  0  0  0  0  0
   14.4956   -4.4236  -10.3591 C   0  0  0  0  0  0
   13.4486   -3.5358  -10.1600 C   0  0  0  0  0  0
   12.8572   -2.9051  -11.2313 C   0  0  0  0  0  0
   13.2900   -3.1781  -12.5071 C   0  0  0  0  0  0
   17.5237   -7.0395  -12.7420 N   0  0  0  0  0  0
   16.0078   -5.6211  -11.7808 N   0  0  0  0  0  0
   16.4195   -5.5370  -14.0401 O   0  0  0  0  0  0
   18.4317   -9.7571  -12.7106 O   0  0  0  0  0  0
  2 10  2  0  0  0
  2  6  1  0  0  0
  3  4  1  0  0  0
  3  1  1  0  0  0
  4 11  1  0  0  0
  5 11  1  0  0  0
  5 12  1  0  0  0
  6  7  2  0  0  0
  7  8  1  0  0  0
  9  8  2  0  0  0
 10  9  1  0  0  0
 12  6  1  0  0  0
 13  5  2  0  0  0
 14  3  1  0  0  0
M  END
>  <CHROM.1>
-178.55823687,-179.91762920,0.85583676,16.23162930,-6.01044647,-12.52503681
0.00751187,0.82452083,-1.17253963

>  <Name>
ligand.pdb

>  <RI>
2.24188e+07

>  <Rbt.Current_Directory>
/home/v/Downloads/rDock_2013.1_src/bin

>  <Rbt.Executable>
rbdock ($Id: //depot/dev/client3/rdock/2013.1/src/exe/rbdock.cxx#4 $)

>  <Rbt.Library>
libRbt.so (2013.1, Build901 2013/11/27)

>  <Rbt.Parameter_File>
/home/v/Downloads/rDock_2013.1_src/data/scripts/dock_solv.prm

>  <Rbt.Receptor>
/home/v/Desktop/r.prm

>  <SCORE>
7.49213

>  <SCORE.INTER>
8.4

>  <SCORE.INTER.CONST>
1

>  <SCORE.INTER.POLAR>
0

>  <SCORE.INTER.ROT>
3

>  <SCORE.INTER.SOLV>
0

>  <SCORE.INTER.VDW>
0

>  <SCORE.INTER.norm>
0.6

>  <SCORE.INTRA>
-0.907873

>  <SCORE.INTRA.DIHEDRAL>
-1.61333

>  <SCORE.INTRA.DIHEDRAL.0>
1.6411

>  <SCORE.INTRA.POLAR>
0

>  <SCORE.INTRA.POLAR.0>
0

>  <SCORE.INTRA.REPUL>
0

>  <SCORE.INTRA.REPUL.0>
0

>  <SCORE.INTRA.SOLV>
-0.293887

>  <SCORE.INTRA.SOLV.lig_0>
-16.0602

>  <SCORE.INTRA.VDW>
0.0457364

>  <SCORE.INTRA.VDW.0>
-0.639572

>  <SCORE.INTRA.norm>
-0.064848

>  <SCORE.RESTR>
0

>  <SCORE.RESTR.CAVITY>
0

>  <SCORE.RESTR.norm>
0

>  <SCORE.SYSTEM>
0

>  <SCORE.SYSTEM.CONST>
0

>  <SCORE.SYSTEM.DIHEDRAL>
0

>  <SCORE.SYSTEM.SOLV>
0

>  <SCORE.SYSTEM.norm>
0

>  <SCORE.heavy>
14

>  <SCORE.norm>
0.535152

$$$$
ligand.pdb
  rDOCK(R)          3D
libRbt.so/2013.1/901 2013/11/27
 14 14  0  0  0  0  0  0  0  0999 V2000
   13.1236   -8.5239   -4.8569 C   0  0  0  0  0  0
   19.2139  -10.5320   -9.5790 C   0  0  0  0  0  0
   14.0528   -8.0274   -5.9527 C   0  0  0  0  0  0
   15.1133   -9.0542   -6.3484 C   0  0  0  0  0  0
   17.0279   -9.2971   -7.8706 C   0  0  0  0  0  0
   18.7603   -9.2226   -9.6882 C   0  0  0  0  0  0
   19.3351   -8.3845  -10.6329 C   0  0  0  0  0  0
   20.3391   -8.8568  -11.4652 C   0  0  0  0  0  0
   20.7939  -10.1504  -11.3430 C   0  0  0  0  0  0
   20.2301  -10.9858  -10.4082 C   0  0  0  0  0  0
   16.0100   -8.5564   -7.3775 N   0  0  0  0  0  0
   17.7391   -8.6811   -8.8703 N   0  0  0  0  0  0
   17.2957  -10.4284   -7.4449 O   0  0  0  0  0  0
   13.2998   -7.6755   -7.1061 O   0  0  0  0  0  0
  2 10  2  0  0  0
  2  6  1  0  0  0
  3  4  1  0  0  0
  3  1  1  0  0  0
  4 11  1  0  0  0
  5 11  1  0  0  0
  5 12  1  0  0  0
  6  7  2  0  0  0
  7  8  1  0  0  0
  9  8  2  0  0  0
 10  9  1  0  0  0
 12  6  1  0  0  0
 13  5  2  0  0  0
 14  3  1  0  0  0
M  END
>  <CHROM.1>
-178.86855124,179.60003019,-0.31595080,17.18050387,-9.15198995,-8.40140414
-2.90476584,0.63747251,-0.68005625

>  <Name>
ligand.pdb

>  <RI>
2.24188e+07

>  <Rbt.Current_Directory>
/home/v/Downloads/rDock_2013.1_src/bin

>  <Rbt.Executable>
rbdock ($Id: //depot/dev/client3/rdock/2013.1/src/exe/rbdock.cxx#4 $)

>  <Rbt.Library>
libRbt.so (2013.1, Build901 2013/11/27)

>  <Rbt.Parameter_File>
/home/v/Downloads/rDock_2013.1_src/data/scripts/dock_solv.prm

>  <Rbt.Receptor>
/home/v/Desktop/r.prm

>  <SCORE>
7.49269

>  <SCORE.INTER>
8.4

>  <SCORE.INTER.CONST>
1

>  <SCORE.INTER.POLAR>
0

>  <SCORE.INTER.ROT>
3

>  <SCORE.INTER.SOLV>
0

>  <SCORE.INTER.VDW>
0

>  <SCORE.INTER.norm>
0.6

>  <SCORE.INTRA>
-0.907314

>  <SCORE.INTRA.DIHEDRAL>
-1.61905

>  <SCORE.INTRA.DIHEDRAL.0>
1.6411

>  <SCORE.INTRA.POLAR>
0

>  <SCORE.INTRA.POLAR.0>
0

>  <SCORE.INTRA.REPUL>
0

>  <SCORE.INTRA.REPUL.0>
0

>  <SCORE.INTRA.SOLV>
-0.293186

>  <SCORE.INTRA.SOLV.lig_0>
-16.0602

>  <SCORE.INTRA.VDW>
0.0488055

>  <SCORE.INTRA.VDW.0>
-0.639572

>  <SCORE.INTRA.norm>
-0.0648081

>  <SCORE.RESTR>
0

>  <SCORE.RESTR.CAVITY>
0

>  <SCORE.RESTR.norm>
0

>  <SCORE.SYSTEM>
0

>  <SCORE.SYSTEM.CONST>
0

>  <SCORE.SYSTEM.DIHEDRAL>
0

>  <SCORE.SYSTEM.SOLV>
0

>  <SCORE.SYSTEM.norm>
0

>  <SCORE.heavy>
14

>  <SCORE.norm>
0.535192

$$$$
ligand.pdb
  rDOCK(R)          3D
libRbt.so/2013.1/901 2013/11/27
 14 14  0  0  0  0  0  0  0  0999 V2000
   16.4413  -10.6089   -5.5721 C   0  0  0  0  0  0
   11.7193   -5.7023   -9.6988 C   0  0  0  0  0  0
   15.7987  -10.3624   -6.9274 C   0  0  0  0  0  0
   14.8695   -9.1490   -6.9369 C   0  0  0  0  0  0
   13.3904   -7.9183   -8.4664 C   0  0  0  0  0  0
   12.1541   -6.8399  -10.3688 C   0  0  0  0  0  0
   11.8049   -7.0155  -11.7001 C   0  0  0  0  0  0
   11.0439   -6.0574  -12.3535 C   0  0  0  0  0  0
   10.6044   -4.9396  -11.6810 C   0  0  0  0  0  0
   10.9452   -4.7600  -10.3614 C   0  0  0  0  0  0
   14.2424   -8.9414   -8.2309 N   0  0  0  0  0  0
   12.9336   -7.8528   -9.7593 N   0  0  0  0  0  0
   13.0485   -7.1197   -7.5844 O   0  0  0  0  0  0
   16.8039  -10.1801   -7.9160 O   0  0  0  0  0  0
  2 10  2  0  0  0
  2  6  1  0  0  0
  3  4  1  0  0  0
  3  1  1  0  0  0
  4 11  1  0  0  0
  5 11  1  0  0  0
  5 12  1  0  0  0
  6  7  2  0  0  0
  7  8  1  0  0  0
  9  8  2  0  0  0
 10  9  1  0  0  0
 12  6  1  0  0  0
 13  5  2  0  0  0
 14  3  1  0  0  0
M  END
>  <CHROM.1>
-178.86096988,-179.46923118,0.06487581,13.37340752,-7.75449110,-9.01557592
0.44419830,-0.82960202,1.35604590

>  <Name>
ligand.pdb

>  <RI>
2.24188e+07

>  <Rbt.Current_Directory>
/home/v/Downloads/rDock_2013.1_src/bin

>  <Rbt.Executable>
rbdock ($Id: //depot/dev/client3/rdock/2013.1/src/exe/rbdock.cxx#4 $)

>  <Rbt.Library>
libRbt.so (2013.1, Build901 2013/11/27)

>  <Rbt.Parameter_File>
/home/v/Downloads/rDock_2013.1_src/data/scripts/dock_solv.prm

>  <Rbt.Receptor>
/home/v/Desktop/r.prm

>  <SCORE>
7.49268

>  <SCORE.INTER>
8.4

>  <SCORE.INTER.CONST>
1

>  <SCORE.INTER.POLAR>
0

>  <SCORE.INTER.ROT>
3

>  <SCORE.INTER.SOLV>
0

>  <SCORE.INTER.VDW>
0

>  <SCORE.INTER.norm>
0.6

>  <SCORE.INTRA>
-0.907322

>  <SCORE.INTRA.DIHEDRAL>
-1.61859

>  <SCORE.INTRA.DIHEDRAL.0>
1.6411

>  <SCORE.INTRA.POLAR>
0

>  <SCORE.INTRA.POLAR.0>
0

>  <SCORE.INTRA.REPUL>
0

>  <SCORE.INTRA.REPUL.0>
0

>  <SCORE.INTRA.SOLV>
-0.291921

>  <SCORE.INTRA.SOLV.lig_0>
-16.0602

>  <SCORE.INTRA.VDW>
0.0479334

>  <SCORE.INTRA.VDW.0>
-0.639572

>  <SCORE.INTRA.norm>
-0.0648087

>  <SCORE.RESTR>
0

>  <SCORE.RESTR.CAVITY>
0

>  <SCORE.RESTR.norm>
0

>  <SCORE.SYSTEM>
0

>  <SCORE.SYSTEM.CONST>
0

>  <SCORE.SYSTEM.DIHEDRAL>
0

>  <SCORE.SYSTEM.SOLV>
0

>  <SCORE.SYSTEM.norm>
0

>  <SCORE.heavy>
14

>  <SCORE.norm>
0.535191

$$$$
ligand.pdb
  rDOCK(R)          3D
libRbt.so/2013.1/901 2013/11/27
 14 14  0  0  0  0  0  0  0  0999 V2000
   10.1379   -7.3027   -8.2983 C   0  0  0  0  0  0
   17.2367  -10.2551  -10.3685 C   0  0  0  0  0  0
   11.4434   -7.8694   -7.7642 C   0  0  0  0  0  0
   12.3890   -8.3374   -8.8699 C   0  0  0  0  0  0
   14.5985   -9.3781   -9.1465 C   0  0  0  0  0  0
   16.9507  -10.2491   -9.0083 C   0  0  0  0  0  0
   17.9141  -10.6911   -8.1128 C   0  0  0  0  0  0
   19.1506  -11.1184   -8.5737 C   0  0  0  0  0  0
   19.4231  -11.1352   -9.9229 C   0  0  0  0  0  0
   18.4728  -10.7003  -10.8158 C   0  0  0  0  0  0
   13.6218   -8.8984   -8.3441 N   0  0  0  0  0  0
   15.7097   -9.8243   -8.4750 N   0  0  0  0  0  0
   14.4887   -9.4178  -10.3789 O   0  0  0  0  0  0
   12.1085   -6.8943   -6.9719 O   0  0  0  0  0  0
  2 10  2  0  0  0
  2  6  1  0  0  0
  3  4  1  0  0  0
  3  1  1  0  0  0
  4 11  1  0  0  0
  5 11  1  0  0  0
  5 12  1  0  0  0
  6  7  2  0  0  0
  7  8  1  0  0  0
  9  8  2  0  0  0
 10  9  1  0  0  0
 12  6  1  0  0  0
 13  5  2  0  0  0
 14  3  1  0  0  0
M  END
>  <CHROM.1>
-178.95967907,179.78007496,0.97461301,15.11850706,-9.36085810,-8.91024782
2.86971904,-0.38878391,1.38419818

>  <Name>
ligand.pdb

>  <RI>
2.24188e+07

>  <Rbt.Current_Directory>
/home/v/Downloads/rDock_2013.1_src/bin

>  <Rbt.Executable>
rbdock ($Id: //depot/dev/client3/rdock/2013.1/src/exe/rbdock.cxx#4 $)

>  <Rbt.Library>
libRbt.so (2013.1, Build901 2013/11/27)

>  <Rbt.Parameter_File>
/home/v/Downloads/rDock_2013.1_src/data/scripts/dock_solv.prm

>  <Rbt.Receptor>
/home/v/Desktop/r.prm

>  <SCORE>
7.49214

>  <SCORE.INTER>
8.4

>  <SCORE.INTER.CONST>
1

>  <SCORE.INTER.POLAR>
0

>  <SCORE.INTER.ROT>
3

>  <SCORE.INTER.SOLV>
0

>  <SCORE.INTER.VDW>
0

>  <SCORE.INTER.norm>
0.6

>  <SCORE.INTRA>
-0.907864

>  <SCORE.INTRA.DIHEDRAL>
-1.61664

>  <SCORE.INTRA.DIHEDRAL.0>
1.6411

>  <SCORE.INTRA.POLAR>
0

>  <SCORE.INTRA.POLAR.0>
0

>  <SCORE.INTRA.REPUL>
0

>  <SCORE.INTRA.REPUL.0>
0

>  <SCORE.INTRA.SOLV>
-0.29252

>  <SCORE.INTRA.SOLV.lig_0>
-16.0602

>  <SCORE.INTRA.VDW>
0.0467156

>  <SCORE.INTRA.VDW.0>
-0.639572

>  <SCORE.INTRA.norm>
-0.0648475

>  <SCORE.RESTR>
0

>  <SCORE.RESTR.CAVITY>
0

>  <SCORE.RESTR.norm>
0

>  <SCORE.SYSTEM>
0

>  <SCORE.SYSTEM.CONST>
0

>  <SCORE.SYSTEM.DIHEDRAL>
0

>  <SCORE.SYSTEM.SOLV>
0

>  <SCORE.SYSTEM.norm>
0

>  <SCORE.heavy>
14

>  <SCORE.norm>
0.535153

$$$$
ligand.pdb
  rDOCK(R)          3D
libRbt.so/2013.1/901 2013/11/27
 14 14  0  0  0  0  0  0  0  0999 V2000
   12.4288   -5.3429  -15.0448 C   0  0  0  0  0  0
   15.4873   -8.4136   -8.3635 C   0  0  0  0  0  0
   13.2466   -6.4904  -14.4744 C   0  0  0  0  0  0
   13.4845   -6.3652  -12.9699 C   0  0  0  0  0  0
   14.6607   -7.5174  -11.1449 C   0  0  0  0  0  0
   15.7973   -9.0824   -9.5419 C   0  0  0  0  0  0
   16.5575  -10.2416   -9.4815 C   0  0  0  0  0  0
   16.9875  -10.7304   -8.2568 C   0  0  0  0  0  0
   16.6892  -10.0561   -7.0943 C   0  0  0  0  0  0
   15.9378   -8.9062   -7.1468 C   0  0  0  0  0  0
   14.2978   -7.4490  -12.4455 N   0  0  0  0  0  0
   15.3877   -8.6363  -10.8219 N   0  0  0  0  0  0
   14.3675   -6.6381  -10.3243 O   0  0  0  0  0  0
   12.5969   -7.7275  -14.7363 O   0  0  0  0  0  0
  2 10  2  0  0  0
  2  6  1  0  0  0
  3  4  1  0  0  0
  3  1  1  0  0  0
  4 11  1  0  0  0
  5 11  1  0  0  0
  5 12  1  0  0  0
  6  7  2  0  0  0
  7  8  1  0  0  0
  9  8  2  0  0  0
 10  9  1  0  0  0
 12  6  1  0  0  0
 13  5  2  0  0  0
 14  3  1  0  0  0
M  END
>  <CHROM.1>
-178.42487184,178.23182019,0.74759558,14.77239416,-8.04390106,-10.96761139
2.70310773,1.06613914,-2.16950449

>  <Name>
ligand.pdb

>  <RI>
2.24188e+07

>  <Rbt.Current_Directory>
/home/v/Downloads/rDock_2013.1_src/bin

>  <Rbt.Executable>
rbdock ($Id: //depot/dev/client3/rdock/2013.1/src/exe/rbdock.cxx#4 $)

>  <Rbt.Library>
libRbt.so (2013.1, Build901 2013/11/27)

>  <Rbt.Parameter_File>
/home/v/Downloads/rDock_2013.1_src/data/scripts/dock_solv.prm

>  <Rbt.Receptor>
/home/v/Desktop/r.prm

>  <SCORE>
7.49276

>  <SCORE.INTER>
8.4

>  <SCORE.INTER.CONST>
1

>  <SCORE.INTER.POLAR>
0

>  <SCORE.INTER.ROT>
3

>  <SCORE.INTER.SOLV>
0

>  <SCORE.INTER.VDW>
0

>  <SCORE.INTER.norm>
0.6

>  <SCORE.INTRA>
-0.907236

>  <SCORE.INTRA.DIHEDRAL>
-1.60969

>  <SCORE.INTRA.DIHEDRAL.0>
1.6411

>  <SCORE.INTRA.POLAR>
0

>  <SCORE.INTRA.POLAR.0>
0

>  <SCORE.INTRA.REPUL>
0

>  <SCORE.INTRA.REPUL.0>
0

>  <SCORE.INTRA.SOLV>
-0.296881

>  <SCORE.INTRA.SOLV.lig_0>
-16.0602

>  <SCORE.INTRA.VDW>
0.0460471

>  <SCORE.INTRA.VDW.0>
-0.639572

>  <SCORE.INTRA.norm>
-0.0648026

>  <SCORE.RESTR>
0

>  <SCORE.RESTR.CAVITY>
0

>  <SCORE.RESTR.norm>
0

>  <SCORE.SYSTEM>
0

>  <SCORE.SYSTEM.CONST>
0

>  <SCORE.SYSTEM.DIHEDRAL>
0

>  <SCORE.SYSTEM.SOLV>
0

>  <SCORE.SYSTEM.norm>
0

>  <SCORE.heavy>
14

>  <SCORE.norm>
0.535197

$$$$
ligand.pdb
  rDOCK(R)          3D
libRbt.so/2013.1/901 2013/11/27
 14 14  0  0  0  0  0  0  0  0999 V2000
   19.4806  -11.0323   -5.2475 C   0  0  0  0  0  0
   17.3002  -11.2768  -12.9000 C   0  0  0  0  0  0
   19.3347  -11.9343   -6.4624 C   0  0  0  0  0  0
   18.7061  -11.2255   -7.6616 C   0  0  0  0  0  0
   18.0284  -11.6823   -9.9797 C   0  0  0  0  0  0
   17.6601  -12.4919  -12.3291 C   0  0  0  0  0  0
   17.6745  -13.6324  -13.1192 C   0  0  0  0  0  0
   17.3473  -13.5525  -14.4648 C   0  0  0  0  0  0
   16.9781  -12.3488  -15.0215 C   0  0  0  0  0  0
   16.9601  -11.2152  -14.2442 C   0  0  0  0  0  0
   18.5525  -12.1054   -8.8074 N   0  0  0  0  0  0
   18.0057  -12.6392  -10.9638 N   0  0  0  0  0  0
   17.5986  -10.5325  -10.1408 O   0  0  0  0  0  0
   20.6053  -12.4453   -6.8437 O   0  0  0  0  0  0
  2 10  2  0  0  0
  2  6  1  0  0  0
  3  4  1  0  0  0
  3  1  1  0  0  0
  4 11  1  0  0  0
  5 11  1  0  0  0
  5 12  1  0  0  0
  6  7  2  0  0  0
  7  8  1  0  0  0
  9  8  2  0  0  0
 10  9  1  0  0  0
 12  6  1  0  0  0
 13  5  2  0  0  0
 14  3  1  0  0  0
M  END
>  <CHROM.1>
-179.03740394,-179.41663306,1.41941466,18.21020859,-11.98049296,-10.43453129
0.95300804,-1.04536767,0.91165639

>  <Name>
ligand.pdb

>  <RI>
2.24188e+07

>  <Rbt.Current_Directory>
/home/v/Downloads/rDock_2013.1_src/bin

>  <Rbt.Executable>
rbdock ($Id: //depot/dev/client3/rdock/2013.1/src/exe/rbdock.cxx#4 $)

>  <Rbt.Library>
libRbt.so (2013.1, Build901 2013/11/27)

>  <Rbt.Parameter_File>
/home/v/Downloads/rDock_2013.1_src/data/scripts/dock_solv.prm

>  <Rbt.Receptor>
/home/v/Desktop/r.prm

>  <SCORE>
7.49295

>  <SCORE.INTER>
8.4

>  <SCORE.INTER.CONST>
1

>  <SCORE.INTER.POLAR>
0

>  <SCORE.INTER.ROT>
3

>  <SCORE.INTER.SOLV>
0

>  <SCORE.INTER.VDW>
0

>  <SCORE.INTER.norm>
0.6

>  <SCORE.INTRA>
-0.907047

>  <SCORE.INTRA.DIHEDRAL>
-1.61439

>  <SCORE.INTRA.DIHEDRAL.0>
1.6411

>  <SCORE.INTRA.POLAR>
0

>  <SCORE.INTRA.POLAR.0>
0

>  <SCORE.INTRA.REPUL>
0

>  <SCORE.INTRA.REPUL.0>
0

>  <SCORE.INTRA.SOLV>
-0.291075

>  <SCORE.INTRA.SOLV.lig_0>
-16.0602

>  <SCORE.INTRA.VDW>
0.0456842

>  <SCORE.INTRA.VDW.0>
-0.639572

>  <SCORE.INTRA.norm>
-0.064789

>  <SCORE.RESTR>
0

>  <SCORE.RESTR.CAVITY>
0

>  <SCORE.RESTR.norm>
0

>  <SCORE.SYSTEM>
0

>  <SCORE.SYSTEM.CONST>
0

>  <SCORE.SYSTEM.DIHEDRAL>
0

>  <SCORE.SYSTEM.SOLV>
0

>  <SCORE.SYSTEM.norm>
0

>  <SCORE.heavy>
14

>  <SCORE.norm>
0.535211

$$$$
ligand.pdb
  rDOCK(R)          3D
libRbt.so/2013.1/901 2013/11/27
 14 14  0  0  0  0  0  0  0  0999 V2000
   20.9162   -8.5017   -7.4739 C   0  0  0  0  0  0
   14.6253   -9.5507  -12.2376 C   0  0  0  0  0  0
   19.6088   -7.8869   -7.9463 C   0  0  0  0  0  0
   18.9294   -8.6993   -9.0482 C   0  0  0  0  0  0
   16.9145   -8.6536  -10.4553 C   0  0  0  0  0  0
   14.6716   -8.3470  -11.5442 C   0  0  0  0  0  0
   13.6178   -7.4531  -11.6701 C   0  0  0  0  0  0
   12.5275   -7.7685  -12.4675 C   0  0  0  0  0  0
   12.4936   -8.9561  -13.1628 C   0  0  0  0  0  0
   13.5349   -9.8456  -13.0441 C   0  0  0  0  0  0
   17.6863   -8.0950   -9.4959 N   0  0  0  0  0  0
   15.7541   -7.9672  -10.7142 N   0  0  0  0  0  0
   17.2381   -9.6892  -11.0514 O   0  0  0  0  0  0
   18.7108   -7.7542   -6.8521 O   0  0  0  0  0  0
  2 10  2  0  0  0
  2  6  1  0  0  0
  3  4  1  0  0  0
  3  1  1  0  0  0
  4 11  1  0  0  0
  5 11  1  0  0  0
  5 12  1  0  0  0
  6  7  2  0  0  0
  7  8  1  0  0  0
  9  8  2  0  0  0
 10  9  1  0  0  0
 12  6  1  0  0  0
 13  5  2  0  0  0
 14  3  1  0  0  0
M  END
>  <CHROM.1>
-179.60105075,-179.33472973,1.04427609,16.35831100,-8.51456193,-10.41395174
-0.48266122,0.44842421,-2.35942548

>  <Name>
ligand.pdb

>  <RI>
2.24188e+07

>  <Rbt.Current_Directory>
/home/v/Downloads/rDock_2013.1_src/bin

>  <Rbt.Executable>
rbdock ($Id: //depot/dev/client3/rdock/2013.1/src/exe/rbdock.cxx#4 $)

>  <Rbt.Library>
libRbt.so (2013.1, Build901 2013/11/27)

>  <Rbt.Parameter_File>
/home/v/Downloads/rDock_2013.1_src/data/scripts/dock_solv.prm

>  <Rbt.Receptor>
/home/v/Desktop/r.prm

>  <SCORE>
7.49407

>  <SCORE.INTER>
8.4

>  <SCORE.INTER.CONST>
1

>  <SCORE.INTER.POLAR>
0

>  <SCORE.INTER.ROT>
3

>  <SCORE.INTER.SOLV>
0

>  <SCORE.INTER.VDW>
0

>  <SCORE.INTER.norm>
0.6

>  <SCORE.INTRA>
-0.905932

>  <SCORE.INTRA.DIHEDRAL>
-1.61981

>  <SCORE.INTRA.DIHEDRAL.0>
1.6411

>  <SCORE.INTRA.POLAR>
0

>  <SCORE.INTRA.POLAR.0>
0

>  <SCORE.INTRA.REPUL>
0

>  <SCORE.INTRA.REPUL.0>
0

>  <SCORE.INTRA.SOLV>
-0.288453

>  <SCORE.INTRA.SOLV.lig_0>
-16.0602

>  <SCORE.INTRA.VDW>
0.0481997

>  <SCORE.INTRA.VDW.0>
-0.639572

>  <SCORE.INTRA.norm>
-0.0647094

>  <SCORE.RESTR>
0

>  <SCORE.RESTR.CAVITY>
0

>  <SCORE.RESTR.norm>
0

>  <SCORE.SYSTEM>
0

>  <SCORE.SYSTEM.CONST>
0

>  <SCORE.SYSTEM.DIHEDRAL>
0

>  <SCORE.SYSTEM.SOLV>
0

>  <SCORE.SYSTEM.norm>
0

>  <SCORE.heavy>
14

>  <SCORE.norm>
0.535291

$$$$
ligand.pdb
  rDOCK(R)          3D
libRbt.so/2013.1/901 2013/11/27
 14 14  0  0  0  0  0  0  0  0999 V2000
   12.5817   -8.3051  -13.3894 C   0  0  0  0  0  0
   18.1079  -10.2101   -7.9829 C   0  0  0  0  0  0
   12.9392   -8.2418  -11.9133 C   0  0  0  0  0  0
   14.2579   -8.9418  -11.5868 C   0  0  0  0  0  0
   15.6823   -9.4748   -9.6558 C   0  0  0  0  0  0
   16.9428   -9.6354   -7.4887 C   0  0  0  0  0  0
   16.8351   -9.3886   -6.1276 C   0  0  0  0  0  0
   17.8859   -9.6997   -5.2773 C   0  0  0  0  0  0
   19.0319  -10.2817   -5.7704 C   0  0  0  0  0  0
   19.1447  -10.5305   -7.1176 C   0  0  0  0  0  0
   14.5707   -8.9009  -10.1685 N   0  0  0  0  0  0
   15.8364   -9.2936   -8.3037 N   0  0  0  0  0  0
   16.4821  -10.1155  -10.3503 O   0  0  0  0  0  0
   13.0203   -6.8869  -11.4905 O   0  0  0  0  0  0
  2 10  2  0  0  0
  2  6  1  0  0  0
  3  4  1  0  0  0
  3  1  1  0  0  0
  4 11  1  0  0  0
  5 11  1  0  0  0
  5 12  1  0  0  0
  6  7  2  0  0  0
  7  8  1  0  0  0
  9  8  2  0  0  0
 10  9  1  0  0  0
 12  6  1  0  0  0
 13  5  2  0  0  0
 14  3  1  0  0  0
M  END
>  <CHROM.1>
-178.63073351,179.11315878,1.54919514,15.85794581,-9.23794852,-9.16913802
-2.46561713,-0.61155445,1.27211216

>  <Name>
ligand.pdb

>  <RI>
2.24188e+07

>  <Rbt.Current_Directory>
/home/v/Downloads/rDock_2013.1_src/bin

>  <Rbt.Executable>
rbdock ($Id: //depot/dev/client3/rdock/2013.1/src/exe/rbdock.cxx#4 $)

>  <Rbt.Library>
libRbt.so (2013.1, Build901 2013/11/27)

>  <Rbt.Parameter_File>
/home/v/Downloads/rDock_2013.1_src/data/scripts/dock_solv.prm

>  <Rbt.Receptor>
/home/v/Desktop/r.prm

>  <SCORE>
7.49249

>  <SCORE.INTER>
8.4

>  <SCORE.INTER.CONST>
1

>  <SCORE.INTER.POLAR>
0

>  <SCORE.INTER.ROT>
3

>  <SCORE.INTER.SOLV>
0

>  <SCORE.INTER.VDW>
0

>  <SCORE.INTER.norm>
0.6

>  <SCORE.INTRA>
-0.907506

>  <SCORE.INTRA.DIHEDRAL>
-1.60936

>  <SCORE.INTRA.DIHEDRAL.0>
1.6411

>  <SCORE.INTRA.POLAR>
0

>  <SCORE.INTRA.POLAR.0>
0

>  <SCORE.INTRA.REPUL>
0

>  <SCORE.INTRA.REPUL.0>
0

>  <SCORE.INTRA.SOLV>
-0.294884

>  <SCORE.INTRA.SOLV.lig_0>
-16.0602

>  <SCORE.INTRA.VDW>
0.0446134

>  <SCORE.INTRA.VDW.0>
-0.639572

>  <SCORE.INTRA.norm>
-0.0648219

>  <SCORE.RESTR>
0

>  <SCORE.RESTR.CAVITY>
0

>  <SCORE.RESTR.norm>
0

>  <SCORE.SYSTEM>
0

>  <SCORE.SYSTEM.CONST>
0

>  <SCORE.SYSTEM.DIHEDRAL>
0

>  <SCORE.SYSTEM.SOLV>
0

>  <SCORE.SYSTEM.norm>
0

>  <SCORE.heavy>
14

>  <SCORE.norm>
0.535178

$$$$
ligand.pdb
  rDOCK(R)          3D
libRbt.so/2013.1/901 2013/11/27
 14 14  0  0  0  0  0  0  0  0999 V2000
   11.9822   -7.4326   -6.2804 C   0  0  0  0  0  0
   16.6865   -8.7921  -12.5601 C   0  0  0  0  0  0
   13.4058   -7.7436   -6.7133 C   0  0  0  0  0  0
   13.5401   -7.9538   -8.2211 C   0  0  0  0  0  0
   15.2429   -8.5140   -9.9029 C   0  0  0  0  0  0
   17.2869   -8.9008  -11.3112 C   0  0  0  0  0  0
   18.6455   -9.1722  -11.2353 C   0  0  0  0  0  0
   19.3932   -9.3175  -12.3945 C   0  0  0  0  0  0
   18.7905   -9.2226  -13.6285 C   0  0  0  0  0  0
   17.4446   -8.9556  -13.7111 C   0  0  0  0  0  0
   14.8993   -8.2821   -8.6160 N   0  0  0  0  0  0
   16.5799   -8.7618  -10.0921 N   0  0  0  0  0  0
   14.4159   -8.5116  -10.8240 O   0  0  0  0  0  0
   14.2755   -6.6915   -6.3159 O   0  0  0  0  0  0
  2 10  2  0  0  0
  2  6  1  0  0  0
  3  4  1  0  0  0
  3  1  1  0  0  0
  4 11  1  0  0  0
  5 11  1  0  0  0
  5 12  1  0  0  0
  6  7  2  0  0  0
  7  8  1  0  0  0
  9  8  2  0  0  0
 10  9  1  0  0  0
 12  6  1  0  0  0
 13  5  2  0  0  0
 14  3  1  0  0  0
M  END
>  <CHROM.1>
-178.59955528,179.74094214,0.33507795,15.79153884,-8.40494775,-10.01673093
2.26026161,-0.07120316,1.35393665

>  <Name>
ligand.pdb

>  <RI>
2.24188e+07

>  <Rbt.Current_Directory>
/home/v/Downloads/rDock_2013.1_src/bin

>  <Rbt.Executable>
rbdock ($Id: //depot/dev/client3/rdock/2013.1/src/exe/rbdock.cxx#4 $)

>  <Rbt.Library>
libRbt.so (2013.1, Build901 2013/11/27)

>  <Rbt.Parameter_File>
/home/v/Downloads/rDock_2013.1_src/data/scripts/dock_solv.prm

>  <Rbt.Receptor>
/home/v/Desktop/r.prm

>  <SCORE>
7.49207

>  <SCORE.INTER>
8.4

>  <SCORE.INTER.CONST>
1

>  <SCORE.INTER.POLAR>
0

>  <SCORE.INTER.ROT>
3

>  <SCORE.INTER.SOLV>
0

>  <SCORE.INTER.VDW>
0

>  <SCORE.INTER.norm>
0.6

>  <SCORE.INTRA>
-0.907929

>  <SCORE.INTRA.DIHEDRAL>
-1.61561

>  <SCORE.INTRA.DIHEDRAL.0>
1.6411

>  <SCORE.INTRA.POLAR>
0

>  <SCORE.INTRA.POLAR.0>
0

>  <SCORE.INTRA.REPUL>
0

>  <SCORE.INTRA.REPUL.0>
0

>  <SCORE.INTRA.SOLV>
-0.294171

>  <SCORE.INTRA.SOLV.lig_0>
-16.0602

>  <SCORE.INTRA.VDW>
0.0469598

>  <SCORE.INTRA.VDW.0>
-0.639572

>  <SCORE.INTRA.norm>
-0.0648521

>  <SCORE.RESTR>
0

>  <SCORE.RESTR.CAVITY>
0

>  <SCORE.RESTR.norm>
0

>  <SCORE.SYSTEM>
0

>  <SCORE.SYSTEM.CONST>
0

>  <SCORE.SYSTEM.DIHEDRAL>
0

>  <SCORE.SYSTEM.SOLV>
0

>  <SCORE.SYSTEM.norm>
0

>  <SCORE.heavy>
14

>  <SCORE.norm>
0.535148

$$$$
ligand.pdb
  rDOCK(R)          3D
libRbt.so/2013.1/901 2013/11/27
 14 14  0  0  0  0  0  0  0  0999 V2000
   13.8496  -12.0082   -4.3183 C   0  0  0  0  0  0
   15.7464  -12.2297  -12.0477 C   0  0  0  0  0  0
   14.2564  -11.1638   -5.5151 C   0  0  0  0  0  0
   14.5552  -11.9969   -6.7610 C   0  0  0  0  0  0
   15.2795  -11.7102   -9.0923 C   0  0  0  0  0  0
   15.8317  -10.9858  -11.4334 C   0  0  0  0  0  0
   16.1760   -9.8779  -12.1946 C   0  0  0  0  0  0
   16.4166  -10.0133  -13.5539 C   0  0  0  0  0  0
   16.3443  -11.2501  -14.1541 C   0  0  0  0  0  0
   16.0053  -12.3523  -13.4057 C   0  0  0  0  0  0
   14.9649  -11.1787   -7.8896 N   0  0  0  0  0  0
   15.5970  -10.7813  -10.0520 N   0  0  0  0  0  0
   15.2880  -12.9306   -9.2996 O   0  0  0  0  0  0
   13.2302  -10.2290   -5.8216 O   0  0  0  0  0  0
  2 10  2  0  0  0
  2  6  1  0  0  0
  3  4  1  0  0  0
  3  1  1  0  0  0
  4 11  1  0  0  0
  5 11  1  0  0  0
  5 12  1  0  0  0
  6  7  2  0  0  0
  7  8  1  0  0  0
  9  8  2  0  0  0
 10  9  1  0  0  0
 12  6  1  0  0  0
 13  5  2  0  0  0
 14  3  1  0  0  0
M  END
>  <CHROM.1>
-178.99981944,179.90537051,1.11125158,15.20058231,-11.35063567,-9.52981725
-2.87840832,1.27843386,-0.23897938

>  <Name>
ligand.pdb

>  <RI>
2.24188e+07

>  <Rbt.Current_Directory>
/home/v/Downloads/rDock_2013.1_src/bin

>  <Rbt.Executable>
rbdock ($Id: //depot/dev/client3/rdock/2013.1/src/exe/rbdock.cxx#4 $)

>  <Rbt.Library>
libRbt.so (2013.1, Build901 2013/11/27)

>  <Rbt.Parameter_File>
/home/v/Downloads/rDock_2013.1_src/data/scripts/dock_solv.prm

>  <Rbt.Receptor>
/home/v/Desktop/r.prm

>  <SCORE>
7.49227

>  <SCORE.INTER>
8.4

>  <SCORE.INTER.CONST>
1

>  <SCORE.INTER.POLAR>
0

>  <SCORE.INTER.ROT>
3

>  <SCORE.INTER.SOLV>
0

>  <SCORE.INTER.VDW>
0

>  <SCORE.INTER.norm>
0.6

>  <SCORE.INTRA>
-0.907728

>  <SCORE.INTRA.DIHEDRAL>
-1.61627

>  <SCORE.INTRA.DIHEDRAL.0>
1.6411

>  <SCORE.INTRA.POLAR>
0

>  <SCORE.INTRA.POLAR.0>
0

>  <SCORE.INTRA.REPUL>
0

>  <SCORE.INTRA.REPUL.0>
0

>  <SCORE.INTRA.SOLV>
-0.292175

>  <SCORE.INTRA.SOLV.lig_0>
-16.0602

>  <SCORE.INTRA.VDW>
0.0464961

>  <SCORE.INTRA.VDW.0>
-0.639572

>  <SCORE.INTRA.norm>
-0.0648377

>  <SCORE.RESTR>
0

>  <SCORE.RESTR.CAVITY>
0

>  <SCORE.RESTR.norm>
0

>  <SCORE.SYSTEM>
0

>  <SCORE.SYSTEM.CONST>
0

>  <SCORE.SYSTEM.DIHEDRAL>
0

>  <SCORE.SYSTEM.SOLV>
0

>  <SCORE.SYSTEM.norm>
0

>  <SCORE.heavy>
14

>  <SCORE.norm>
0.535162

$$$$
ligand.pdb
  rDOCK(R)          3D
libRbt.so/2013.1/901 2013/11/27
 14 14  0  0  0  0  0  0  0  0999 V2000
   11.0404  -10.2521   -9.4668 C   0  0  0  0  0  0
   18.8938  -10.3781  -10.7749 C   0  0  0  0  0  0
   12.2382   -9.4106   -9.8763 C   0  0  0  0  0  0
   13.5549  -10.1855   -9.8377 C   0  0  0  0  0  0
   15.9596   -9.8371  -10.2087 C   0  0  0  0  0  0
   18.2771   -9.1369  -10.8793 C   0  0  0  0  0  0
   19.0355   -8.0334  -11.2432 C   0  0  0  0  0  0
   20.3887   -8.1756  -11.5126 C   0  0  0  0  0  0
   20.9970   -9.4048  -11.3940 C   0  0  0  0  0  0
   20.2520  -10.5020  -11.0323 C   0  0  0  0  0  0
   14.6949   -9.3593  -10.1966 N   0  0  0  0  0  0
   16.9011   -8.9262  -10.6192 N   0  0  0  0  0  0
   16.2379  -10.9942   -9.8677 O   0  0  0  0  0  0
   12.0452   -8.8960  -11.1874 O   0  0  0  0  0  0
  2 10  2  0  0  0
  2  6  1  0  0  0
  3  4  1  0  0  0
  3  1  1  0  0  0
  4 11  1  0  0  0
  5 11  1  0  0  0
  5 12  1  0  0  0
  6  7  2  0  0  0
  7  8  1  0  0  0
  9  8  2  0  0  0
 10  9  1  0  0  0
 12  6  1  0  0  0
 13  5  2  0  0  0
 14  3  1  0  0  0
M  END
>  <CHROM.1>
-178.44924252,179.00113446,1.49826488,16.30667186,-9.55535033,-10.55973022
-3.03126965,0.10933848,-0.41699595

>  <Name>
ligand.pdb

>  <RI>
2.24188e+07

>  <Rbt.Current_Directory>
/home/v/Downloads/rDock_2013.1_src/bin

>  <Rbt.Executable>
rbdock ($Id: //depot/dev/client3/rdock/2013.1/src/exe/rbdock.cxx#4 $)

>  <Rbt.Library>
libRbt.so (2013.1, Build901 2013/11/27)

>  <Rbt.Parameter_File>
/home/v/Downloads/rDock_2013.1_src/data/scripts/dock_solv.prm

>  <Rbt.Receptor>
/home/v/Desktop/r.prm

>  <SCORE>
7.49259

>  <SCORE.INTER>
8.4

>  <SCORE.INTER.CONST>
1

>  <SCORE.INTER.POLAR>
0

>  <SCORE.INTER.ROT>
3

>  <SCORE.INTER.SOLV>
0

>  <SCORE.INTER.VDW>
0

>  <SCORE.INTER.norm>
0.6

>  <SCORE.INTRA>
-0.907406

>  <SCORE.INTRA.DIHEDRAL>
-1.60749

>  <SCORE.INTRA.DIHEDRAL.0>
1.6411

>  <SCORE.INTRA.POLAR>
0

>  <SCORE.INTRA.POLAR.0>
0

>  <SCORE.INTRA.REPUL>
0

>  <SCORE.INTRA.REPUL.0>
0

>  <SCORE.INTRA.SOLV>
-0.295834

>  <SCORE.INTRA.SOLV.lig_0>
-16.0602

>  <SCORE.INTRA.VDW>
0.0442567

>  <SCORE.INTRA.VDW.0>
-0.639572

>  <SCORE.INTRA.norm>
-0.0648147

>  <SCORE.RESTR>
0

>  <SCORE.RESTR.CAVITY>
0

>  <SCORE.RESTR.norm>
0

>  <SCORE.SYSTEM>
0

>  <SCORE.SYSTEM.CONST>
0

>  <SCORE.SYSTEM.DIHEDRAL>
0

>  <SCORE.SYSTEM.SOLV>
0

>  <SCORE.SYSTEM.norm>
0

>  <SCORE.heavy>
14

>  <SCORE.norm>
0.535185

$$$$
ligand.pdb
  rDOCK(R)          3D
libRbt.so/2013.1/901 2013/11/27
 14 14  0  0  0  0  0  0  0  0999 V2000
   15.4763   -7.9453  -11.4440 C   0  0  0  0  0  0
   20.8485  -11.5771   -6.8225 C   0  0  0  0  0  0
   16.5331   -9.0371  -11.4012 C   0  0  0  0  0  0
   17.2734   -9.1010  -10.0657 C   0  0  0  0  0  0
   19.0765  -10.3595   -8.9672 C   0  0  0  0  0  0
   20.8058  -11.9880   -8.1497 C   0  0  0  0  0  0
   21.6335  -13.0215   -8.5646 C   0  0  0  0  0  0
   22.4801  -13.6432   -7.6587 C   0  0  0  0  0  0
   22.5282  -13.2226   -6.3488 C   0  0  0  0  0  0
   21.7122  -12.1982   -5.9312 C   0  0  0  0  0  0
   18.3044  -10.1246  -10.0519 N   0  0  0  0  0  0
   19.9636  -11.3958   -9.1219 N   0  0  0  0  0  0
   18.9920   -9.6872   -7.9311 O   0  0  0  0  0  0
   15.9362  -10.3017  -11.6575 O   0  0  0  0  0  0
  2 10  2  0  0  0
  2  6  1  0  0  0
  3  4  1  0  0  0
  3  1  1  0  0  0
  4 11  1  0  0  0
  5 11  1  0  0  0
  5 12  1  0  0  0
  6  7  2  0  0  0
  7  8  1  0  0  0
  9  8  2  0  0  0
 10  9  1  0  0  0
 12  6  1  0  0  0
 13  5  2  0  0  0
 14  3  1  0  0  0
M  END
>  <CHROM.1>
-178.44274482,-179.58974295,0.19913294,19.27614479,-10.89508592,-8.93860110
3.03181048,0.77130394,-2.24583143

>  <Name>
ligand.pdb

>  <RI>
2.24188e+07

>  <Rbt.Current_Directory>
/home/v/Downloads/rDock_2013.1_src/bin

>  <Rbt.Executable>
rbdock ($Id: //depot/dev/client3/rdock/2013.1/src/exe/rbdock.cxx#4 $)

>  <Rbt.Library>
libRbt.so (2013.1, Build901 2013/11/27)

>  <Rbt.Parameter_File>
/home/v/Downloads/rDock_2013.1_src/data/scripts/dock_solv.prm

>  <Rbt.Receptor>
/home/v/Desktop/r.prm

>  <SCORE>
7.49257

>  <SCORE.INTER>
8.4

>  <SCORE.INTER.CONST>
1

>  <SCORE.INTER.POLAR>
0

>  <SCORE.INTER.ROT>
3

>  <SCORE.INTER.SOLV>
0

>  <SCORE.INTER.VDW>
0

>  <SCORE.INTER.norm>
0.6

>  <SCORE.INTRA>
-0.907427

>  <SCORE.INTRA.DIHEDRAL>
-1.61404

>  <SCORE.INTRA.DIHEDRAL.0>
1.6411

>  <SCORE.INTRA.POLAR>
0

>  <SCORE.INTRA.POLAR.0>
0

>  <SCORE.INTRA.REPUL>
0

>  <SCORE.INTRA.REPUL.0>
0

>  <SCORE.INTRA.SOLV>
-0.293944

>  <SCORE.INTRA.SOLV.lig_0>
-16.0602

>  <SCORE.INTRA.VDW>
0.0465646

>  <SCORE.INTRA.VDW.0>
-0.639572

>  <SCORE.INTRA.norm>
-0.0648162

>  <SCORE.RESTR>
0

>  <SCORE.RESTR.CAVITY>
0

>  <SCORE.RESTR.norm>
0

>  <SCORE.SYSTEM>
0

>  <SCORE.SYSTEM.CONST>
0

>  <SCORE.SYSTEM.DIHEDRAL>
0

>  <SCORE.SYSTEM.SOLV>
0

>  <SCORE.SYSTEM.norm>
0

>  <SCORE.heavy>
14

>  <SCORE.norm>
0.535184

$$$$
ligand.pdb
  rDOCK(R)          3D
libRbt.so/2013.1/901 2013/11/27
 14 14  0  0  0  0  0  0  0  0999 V2000
   15.0062   -6.3889  -13.1143 C   0  0  0  0  0  0
   17.7045   -7.2994   -5.6787 C   0  0  0  0  0  0
   14.8490   -7.1913  -11.8329 C   0  0  0  0  0  0
   15.8630   -6.8047  -10.7568 C   0  0  0  0  0  0
   16.5171   -7.4278   -8.4709 C   0  0  0  0  0  0
   16.7373   -8.2077   -6.0931 C   0  0  0  0  0  0
   16.2717   -9.1568   -5.1943 C   0  0  0  0  0  0
   16.7580   -9.1848   -3.8956 C   0  0  0  0  0  0
   17.7260   -8.2917   -3.4950 C   0  0  0  0  0  0
   18.1929   -7.3498   -4.3806 C   0  0  0  0  0  0
   15.7164   -7.5961   -9.5472 N   0  0  0  0  0  0
   16.2002   -8.2304   -7.4031 N   0  0  0  0  0  0
   17.4591   -6.6246   -8.4604 O   0  0  0  0  0  0
   13.5373   -7.0223  -11.3113 O   0  0  0  0  0  0
  2 10  2  0  0  0
  2  6  1  0  0  0
  3  4  1  0  0  0
  3  1  1  0  0  0
  4 11  1  0  0  0
  5 11  1  0  0  0
  5 12  1  0  0  0
  6  7  2  0  0  0
  7  8  1  0  0  0
  9  8  2  0  0  0
 10  9  1  0  0  0
 12  6  1  0  0  0
 13  5  2  0  0  0
 14  3  1  0  0  0
M  END
>  <CHROM.1>
-178.95596102,179.49634752,1.08230143,16.27512608,-7.58538411,-7.97865585
-1.95476363,0.55727442,1.97820131

>  <Name>
ligand.pdb

>  <RI>
2.24188e+07

>  <Rbt.Current_Directory>
/home/v/Downloads/rDock_2013.1_src/bin

>  <Rbt.Executable>
rbdock ($Id: //depot/dev/client3/rdock/2013.1/src/exe/rbdock.cxx#4 $)

>  <Rbt.Library>
libRbt.so (2013.1, Build901 2013/11/27)

>  <Rbt.Parameter_File>
/home/v/Downloads/rDock_2013.1_src/data/scripts/dock_solv.prm

>  <Rbt.Receptor>
/home/v/Desktop/r.prm

>  <SCORE>
7.49215

>  <SCORE.INTER>
8.4

>  <SCORE.INTER.CONST>
1

>  <SCORE.INTER.POLAR>
0

>  <SCORE.INTER.ROT>
3

>  <SCORE.INTER.SOLV>
0

>  <SCORE.INTER.VDW>
0

>  <SCORE.INTER.norm>
0.6

>  <SCORE.INTRA>
-0.907849

>  <SCORE.INTRA.DIHEDRAL>
-1.61587

>  <SCORE.INTRA.DIHEDRAL.0>
1.6411

>  <SCORE.INTRA.POLAR>
0

>  <SCORE.INTRA.POLAR.0>
0

>  <SCORE.INTRA.REPUL>
0

>  <SCORE.INTRA.REPUL.0>
0

>  <SCORE.INTRA.SOLV>
-0.292918

>  <SCORE.INTRA.SOLV.lig_0>
-16.0602

>  <SCORE.INTRA.VDW>
0.0465465

>  <SCORE.INTRA.VDW.0>
-0.639572

>  <SCORE.INTRA.norm>
-0.0648463

>  <SCORE.RESTR>
0

>  <SCORE.RESTR.CAVITY>
0

>  <SCORE.RESTR.norm>
0

>  <SCORE.SYSTEM>
0

>  <SCORE.SYSTEM.CONST>
0

>  <SCORE.SYSTEM.DIHEDRAL>
0

>  <SCORE.SYSTEM.SOLV>
0

>  <SCORE.SYSTEM.norm>
0

>  <SCORE.heavy>
14

>  <SCORE.norm>
0.535154

$$$$
ligand.pdb
  rDOCK(R)          3D
libRbt.so/2013.1/901 2013/11/27
 14 14  0  0  0  0  0  0  0  0999 V2000
    9.8533   -5.4517  -13.1827 C   0  0  0  0  0  0
   12.4558  -11.9898   -9.4548 C   0  0  0  0  0  0
   10.3580   -6.8710  -13.3868 C   0  0  0  0  0  0
   10.7580   -7.5571  -12.0811 C   0  0  0  0  0  0
   11.6906   -9.6847  -11.2778 C   0  0  0  0  0  0
   12.4435  -12.0417  -10.8438 C   0  0  0  0  0  0
   12.8199  -13.2160  -11.4799 C   0  0  0  0  0  0
   13.1886  -14.3257  -10.7340 C   0  0  0  0  0  0
   13.2123  -14.2640   -9.3589 C   0  0  0  0  0  0
   12.8422  -13.1034   -8.7221 C   0  0  0  0  0  0
   11.2536   -8.9063  -12.2932 N   0  0  0  0  0  0
   12.0764  -10.9452  -11.6612 N   0  0  0  0  0  0
   11.7450   -9.2847  -10.1075 O   0  0  0  0  0  0
    9.3611   -7.6533  -14.0312 O   0  0  0  0  0  0
  2 10  2  0  0  0
  2  6  1  0  0  0
  3  4  1  0  0  0
  3  1  1  0  0  0
  4 11  1  0  0  0
  5 11  1  0  0  0
  5 12  1  0  0  0
  6  7  2  0  0  0
  7  8  1  0  0  0
  9  8  2  0  0  0
 10  9  1  0  0  0
 12  6  1  0  0  0
 13  5  2  0  0  0
 14  3  1  0  0  0
M  END
>  <CHROM.1>
-179.28829510,178.50951167,0.44624376,11.65315691,-10.24206787,-11.38573486
-2.88179656,1.18644791,-2.30231186

>  <Name>
ligand.pdb

>  <RI>
2.24188e+07

>  <Rbt.Current_Directory>
/home/v/Downloads/rDock_2013.1_src/bin

>  <Rbt.Executable>
rbdock ($Id: //depot/dev/client3/rdock/2013.1/src/exe/rbdock.cxx#4 $)

>  <Rbt.Library>
libRbt.so (2013.1, Build901 2013/11/27)

>  <Rbt.Parameter_File>
/home/v/Downloads/rDock_2013.1_src/data/scripts/dock_solv.prm

>  <Rbt.Receptor>
/home/v/Desktop/r.prm

>  <SCORE>
7.49305

>  <SCORE.INTER>
8.4

>  <SCORE.INTER.CONST>
1

>  <SCORE.INTER.POLAR>
0

>  <SCORE.INTER.ROT>
3

>  <SCORE.INTER.SOLV>
0

>  <SCORE.INTER.VDW>
0

>  <SCORE.INTER.norm>
0.6

>  <SCORE.INTRA>
-0.906948

>  <SCORE.INTRA.DIHEDRAL>
-1.61933

>  <SCORE.INTRA.DIHEDRAL.0>
1.6411

>  <SCORE.INTRA.POLAR>
0

>  <SCORE.INTRA.POLAR.0>
0

>  <SCORE.INTRA.REPUL>
0

>  <SCORE.INTRA.REPUL.0>
0

>  <SCORE.INTRA.SOLV>
-0.292692

>  <SCORE.INTRA.SOLV.lig_0>
-16.0602

>  <SCORE.INTRA.VDW>
0.0490642

>  <SCORE.INTRA.VDW.0>
-0.639572

>  <SCORE.INTRA.norm>
-0.064782

>  <SCORE.RESTR>
0

>  <SCORE.RESTR.CAVITY>
0

>  <SCORE.RESTR.norm>
0

>  <SCORE.SYSTEM>
0

>  <SCORE.SYSTEM.CONST>
0

>  <SCORE.SYSTEM.DIHEDRAL>
0

>  <SCORE.SYSTEM.SOLV>
0

>  <SCORE.SYSTEM.norm>
0

>  <SCORE.heavy>
14

>  <SCORE.norm>
0.535218

$$$$
ligand.pdb
  rDOCK(R)          3D
libRbt.so/2013.1/901 2013/11/27
 14 14  0  0  0  0  0  0  0  0999 V2000
   17.0033   -3.6748  -14.1600 C   0  0  0  0  0  0
   16.4883   -8.3543   -7.7394 C   0  0  0  0  0  0
   17.0283   -5.1157  -13.6763 C   0  0  0  0  0  0
   16.9489   -5.2374  -12.1550 C   0  0  0  0  0  0
   16.9327   -6.9572  -10.3989 C   0  0  0  0  0  0
   16.7486   -8.9969   -8.9441 C   0  0  0  0  0  0
   16.8394  -10.3813   -8.9662 C   0  0  0  0  0  0
   16.6572  -11.1106   -7.8005 C   0  0  0  0  0  0
   16.4136  -10.4679   -6.6078 C   0  0  0  0  0  0
   16.3239   -9.0966   -6.5782 C   0  0  0  0  0  0
   16.9958   -6.6185  -11.7063 N   0  0  0  0  0  0
   16.9427   -8.3103  -10.1672 N   0  0  0  0  0  0
   16.8810   -6.1140   -9.4940 O   0  0  0  0  0  0
   15.9498   -5.8407  -14.2529 O   0  0  0  0  0  0
  2 10  2  0  0  0
  2  6  1  0  0  0
  3  4  1  0  0  0
  3  1  1  0  0  0
  4 11  1  0  0  0
  5 11  1  0  0  0
  5 12  1  0  0  0
  6  7  2  0  0  0
  7  8  1  0  0  0
  9  8  2  0  0  0
 10  9  1  0  0  0
 12  6  1  0  0  0
 13  5  2  0  0  0
 14  3  1  0  0  0
M  END
>  <CHROM.1>
-179.05682725,-179.64233955,0.90660083,16.72101240,-7.48176627,-10.30698534
-1.25124681,1.49359874,1.94422515

>  <Name>
ligand.pdb

>  <RI>
2.24188e+07

>  <Rbt.Current_Directory>
/home/v/Downloads/rDock_2013.1_src/bin

>  <Rbt.Executable>
rbdock ($Id: //depot/dev/client3/rdock/2013.1/src/exe/rbdock.cxx#4 $)

>  <Rbt.Library>
libRbt.so (2013.1, Build901 2013/11/27)

>  <Rbt.Parameter_File>
/home/v/Downloads/rDock_2013.1_src/data/scripts/dock_solv.prm

>  <Rbt.Receptor>
/home/v/Desktop/r.prm

>  <SCORE>
7.49249

>  <SCORE.INTER>
8.4

>  <SCORE.INTER.CONST>
1

>  <SCORE.INTER.POLAR>
0

>  <SCORE.INTER.ROT>
3

>  <SCORE.INTER.SOLV>
0

>  <SCORE.INTER.VDW>
0

>  <SCORE.INTER.norm>
0.6

>  <SCORE.INTRA>
-0.907514

>  <SCORE.INTRA.DIHEDRAL>
-1.61768

>  <SCORE.INTRA.DIHEDRAL.0>
1.6411

>  <SCORE.INTRA.POLAR>
0

>  <SCORE.INTRA.POLAR.0>
0

>  <SCORE.INTRA.REPUL>
0

>  <SCORE.INTRA.REPUL.0>
0

>  <SCORE.INTRA.SOLV>
-0.291292

>  <SCORE.INTRA.SOLV.lig_0>
-16.0602

>  <SCORE.INTRA.VDW>
0.0469742

>  <SCORE.INTRA.VDW.0>
-0.639572

>  <SCORE.INTRA.norm>
-0.0648225

>  <SCORE.RESTR>
0

>  <SCORE.RESTR.CAVITY>
0

>  <SCORE.RESTR.norm>
0

>  <SCORE.SYSTEM>
0

>  <SCORE.SYSTEM.CONST>
0

>  <SCORE.SYSTEM.DIHEDRAL>
0

>  <SCORE.SYSTEM.SOLV>
0

>  <SCORE.SYSTEM.norm>
0

>  <SCORE.heavy>
14

>  <SCORE.norm>
0.535178

$$$$
ligand.pdb
  rDOCK(R)          3D
libRbt.so/2013.1/901 2013/11/27
 14 14  0  0  0  0  0  0  0  0999 V2000
   15.3224  -12.9176  -13.8316 C   0  0  0  0  0  0
   21.6131  -12.6123   -8.9575 C   0  0  0  0  0  0
   15.7783  -13.0863  -12.3914 C   0  0  0  0  0  0
   17.2836  -12.8913  -12.2137 C   0  0  0  0  0  0
   19.0066  -13.0084  -10.4646 C   0  0  0  0  0  0
   20.4138  -13.0179   -8.3837 C   0  0  0  0  0  0
   20.3729  -13.2902   -7.0237 C   0  0  0  0  0  0
   21.5138  -13.1435   -6.2487 C   0  0  0  0  0  0
   22.7020  -12.7550   -6.8250 C   0  0  0  0  0  0
   22.7502  -12.4851   -8.1720 C   0  0  0  0  0  0
   17.7108  -13.0965  -10.8403 N   0  0  0  0  0  0
   19.2155  -13.1850   -9.1193 N   0  0  0  0  0  0
   19.9212  -12.7966  -11.2715 O   0  0  0  0  0  0
   15.0928  -12.1649  -11.5534 O   0  0  0  0  0  0
  2 10  2  0  0  0
  2  6  1  0  0  0
  3  4  1  0  0  0
  3  1  1  0  0  0
  4 11  1  0  0  0
  5 11  1  0  0  0
  5 12  1  0  0  0
  6  7  2  0  0  0
  7  8  1  0  0  0
  9  8  2  0  0  0
 10  9  1  0  0  0
 12  6  1  0  0  0
 13  5  2  0  0  0
 14  3  1  0  0  0
M  END
>  <CHROM.1>
-178.20264214,178.25307597,0.79770361,19.07622222,-12.87819708,-9.91788805
-2.42861682,0.03593489,1.63181899

>  <Name>
ligand.pdb

>  <RI>
2.24188e+07

>  <Rbt.Current_Directory>
/home/v/Downloads/rDock_2013.1_src/bin

>  <Rbt.Executable>
rbdock ($Id: //depot/dev/client3/rdock/2013.1/src/exe/rbdock.cxx#4 $)

>  <Rbt.Library>
libRbt.so (2013.1, Build901 2013/11/27)

>  <Rbt.Parameter_File>
/home/v/Downloads/rDock_2013.1_src/data/scripts/dock_solv.prm

>  <Rbt.Receptor>
/home/v/Desktop/r.prm

>  <SCORE>
7.49307

>  <SCORE.INTER>
8.4

>  <SCORE.INTER.CONST>
1

>  <SCORE.INTER.POLAR>
0

>  <SCORE.INTER.ROT>
3

>  <SCORE.INTER.SOLV>
0

>  <SCORE.INTER.VDW>
0

>  <SCORE.INTER.norm>
0.6

>  <SCORE.INTRA>
-0.906926

>  <SCORE.INTRA.DIHEDRAL>
-1.60665

>  <SCORE.INTRA.DIHEDRAL.0>
1.6411

>  <SCORE.INTRA.POLAR>
0

>  <SCORE.INTRA.POLAR.0>
0

>  <SCORE.INTRA.REPUL>
0

>  <SCORE.INTRA.REPUL.0>
0

>  <SCORE.INTRA.SOLV>
-0.297848

>  <SCORE.INTRA.SOLV.lig_0>
-16.0602

>  <SCORE.INTRA.VDW>
0.0453252

>  <SCORE.INTRA.VDW.0>
-0.639572

>  <SCORE.INTRA.norm>
-0.0647804

>  <SCORE.RESTR>
0

>  <SCORE.RESTR.CAVITY>
0

>  <SCORE.RESTR.norm>
0

>  <SCORE.SYSTEM>
0

>  <SCORE.SYSTEM.CONST>
0

>  <SCORE.SYSTEM.DIHEDRAL>
0

>  <SCORE.SYSTEM.SOLV>
0

>  <SCORE.SYSTEM.norm>
0

>  <SCORE.heavy>
14

>  <SCORE.norm>
0.53522

$$$$
ligand.pdb
  rDOCK(R)          3D
libRbt.so/2013.1/901 2013/11/27
 14 14  0  0  0  0  0  0  0  0999 V2000
   10.4779   -8.2239  -14.0923 C   0  0  0  0  0  0
   17.5443   -7.8289  -10.4435 C   0  0  0  0  0  0
   11.1681   -8.1776  -12.7388 C   0  0  0  0  0  0
   12.6927   -8.1893  -12.8441 C   0  0  0  0  0  0
   14.6830   -8.1706  -11.4018 C   0  0  0  0  0  0
   16.4336   -7.9393   -9.6151 C   0  0  0  0  0  0
   16.6107   -7.9099   -8.2392 C   0  0  0  0  0  0
   17.8807   -7.7571   -7.7028 C   0  0  0  0  0  0
   18.9784   -7.6622   -8.5280 C   0  0  0  0  0  0
   18.8105   -7.6923   -9.8920 C   0  0  0  0  0  0
   13.3383   -8.1648  -11.5427 N   0  0  0  0  0  0
   15.1125   -8.0959  -10.1000 N   0  0  0  0  0  0
   15.4537   -8.2474  -12.3675 O   0  0  0  0  0  0
   10.7648   -7.0149  -12.0270 O   0  0  0  0  0  0
  2 10  2  0  0  0
  2  6  1  0  0  0
  3  4  1  0  0  0
  3  1  1  0  0  0
  4 11  1  0  0  0
  5 11  1  0  0  0
  5 12  1  0  0  0
  6  7  2  0  0  0
  7  8  1  0  0  0
  9  8  2  0  0  0
 10  9  1  0  0  0
 12  6  1  0  0  0
 13  5  2  0  0  0
 14  3  1  0  0  0
M  END
>  <CHROM.1>
-179.14619112,179.96792585,0.22750285,14.86385579,-7.92958943,-10.91514994
-2.60388537,-0.07801130,1.40646124

>  <Name>
ligand.pdb

>  <RI>
2.24188e+07

>  <Rbt.Current_Directory>
/home/v/Downloads/rDock_2013.1_src/bin

>  <Rbt.Executable>
rbdock ($Id: //depot/dev/client3/rdock/2013.1/src/exe/rbdock.cxx#4 $)

>  <Rbt.Library>
libRbt.so (2013.1, Build901 2013/11/27)

>  <Rbt.Parameter_File>
/home/v/Downloads/rDock_2013.1_src/data/scripts/dock_solv.prm

>  <Rbt.Receptor>
/home/v/Desktop/r.prm

>  <SCORE>
7.49254

>  <SCORE.INTER>
8.4

>  <SCORE.INTER.CONST>
1

>  <SCORE.INTER.POLAR>
0

>  <SCORE.INTER.ROT>
3

>  <SCORE.INTER.SOLV>
0

>  <SCORE.INTER.VDW>
0

>  <SCORE.INTER.norm>
0.6

>  <SCORE.INTRA>
-0.907462

>  <SCORE.INTRA.DIHEDRAL>
-1.6208

>  <SCORE.INTRA.DIHEDRAL.0>
1.6411

>  <SCORE.INTRA.POLAR>
0

>  <SCORE.INTRA.POLAR.0>
0

>  <SCORE.INTRA.REPUL>
0

>  <SCORE.INTRA.REPUL.0>
0

>  <SCORE.INTRA.SOLV>
-0.291437

>  <SCORE.INTRA.SOLV.lig_0>
-16.0602

>  <SCORE.INTRA.VDW>
0.0486585

>  <SCORE.INTRA.VDW.0>
-0.639572

>  <SCORE.INTRA.norm>
-0.0648187

>  <SCORE.RESTR>
0

>  <SCORE.RESTR.CAVITY>
0

>  <SCORE.RESTR.norm>
0

>  <SCORE.SYSTEM>
0

>  <SCORE.SYSTEM.CONST>
0

>  <SCORE.SYSTEM.DIHEDRAL>
0

>  <SCORE.SYSTEM.SOLV>
0

>  <SCORE.SYSTEM.norm>
0

>  <SCORE.heavy>
14

>  <SCORE.norm>
0.535181

$$$$
ligand.pdb
  rDOCK(R)          3D
libRbt.so/2013.1/901 2013/11/27
 14 14  0  0  0  0  0  0  0  0999 V2000
   17.5392  -10.0078  -14.2442 C   0  0  0  0  0  0
   15.2800   -5.8228   -7.8590 C   0  0  0  0  0  0
   17.5861   -8.6398  -13.5830 C   0  0  0  0  0  0
   16.7830   -8.5752  -12.2844 C   0  0  0  0  0  0
   16.1628   -6.9711  -10.5283 C   0  0  0  0  0  0
   15.9245   -5.1071   -8.8612 C   0  0  0  0  0  0
   16.1762   -3.7557   -8.6720 C   0  0  0  0  0  0
   15.8005   -3.1353   -7.4897 C   0  0  0  0  0  0
   15.1500   -3.8461   -6.5065 C   0  0  0  0  0  0
   14.8960   -5.1848   -6.6878 C   0  0  0  0  0  0
   16.8044   -7.2520  -11.6848 N   0  0  0  0  0  0
   16.3340   -5.6818  -10.0888 N   0  0  0  0  0  0
   15.4740   -7.8068   -9.9286 O   0  0  0  0  0  0
   18.9335   -8.2782  -13.3093 O   0  0  0  0  0  0
  2 10  2  0  0  0
  2  6  1  0  0  0
  3  4  1  0  0  0
  3  1  1  0  0  0
  4 11  1  0  0  0
  5 11  1  0  0  0
  5 12  1  0  0  0
  6  7  2  0  0  0
  7  8  1  0  0  0
  9  8  2  0  0  0
 10  9  1  0  0  0
 12  6  1  0  0  0
 13  5  2  0  0  0
 14  3  1  0  0  0
M  END
>  <CHROM.1>
-178.29229245,-179.75480396,1.61275299,16.39313923,-6.53683918,-10.23727643
1.13193178,-0.83555699,-2.56562702

>  <Name>
ligand.pdb

>  <RI>
2.24188e+07

>  <Rbt.Current_Directory>
/home/v/Downloads/rDock_2013.1_src/bin

>  <Rbt.Executable>
rbdock ($Id: //depot/dev/client3/rdock/2013.1/src/exe/rbdock.cxx#4 $)

>  <Rbt.Library>
libRbt.so (2013.1, Build901 2013/11/27)

>  <Rbt.Parameter_File>
/home/v/Downloads/rDock_2013.1_src/data/scripts/dock_solv.prm

>  <Rbt.Receptor>
/home/v/Desktop/r.prm

>  <SCORE>
7.49304

>  <SCORE.INTER>
8.4

>  <SCORE.INTER.CONST>
1

>  <SCORE.INTER.POLAR>
0

>  <SCORE.INTER.ROT>
3

>  <SCORE.INTER.SOLV>
0

>  <SCORE.INTER.VDW>
0

>  <SCORE.INTER.norm>
0.6

>  <SCORE.INTRA>
-0.90696

>  <SCORE.INTRA.DIHEDRAL>
-1.60546

>  <SCORE.INTRA.DIHEDRAL.0>
1.6411

>  <SCORE.INTRA.POLAR>
0

>  <SCORE.INTRA.POLAR.0>
0

>  <SCORE.INTRA.REPUL>
0

>  <SCORE.INTRA.REPUL.0>
0

>  <SCORE.INTRA.SOLV>
-0.294868

>  <SCORE.INTRA.SOLV.lig_0>
-16.0602

>  <SCORE.INTRA.VDW>
0.0432022

>  <SCORE.INTRA.VDW.0>
-0.639572

>  <SCORE.INTRA.norm>
-0.0647828

>  <SCORE.RESTR>
0

>  <SCORE.RESTR.CAVITY>
0

>  <SCORE.RESTR.norm>
0

>  <SCORE.SYSTEM>
0

>  <SCORE.SYSTEM.CONST>
0

>  <SCORE.SYSTEM.DIHEDRAL>
0

>  <SCORE.SYSTEM.SOLV>
0

>  <SCORE.SYSTEM.norm>
0

>  <SCORE.heavy>
14

>  <SCORE.norm>
0.535217

$$$$
ligand.pdb
  rDOCK(R)          3D
libRbt.so/2013.1/901 2013/11/27
 14 14  0  0  0  0  0  0  0  0999 V2000
    9.0759   -8.7205  -14.2933 C   0  0  0  0  0  0
   12.5620  -10.6687   -7.4041 C   0  0  0  0  0  0
    9.1280   -8.4155  -12.8050 C   0  0  0  0  0  0
   10.0833   -9.3308  -12.0400 C   0  0  0  0  0  0
   10.8607   -9.7512   -9.7464 C   0  0  0  0  0  0
   11.5411   -9.7285   -7.3283 C   0  0  0  0  0  0
   11.2356   -9.1597   -6.1001 C   0  0  0  0  0  0
   11.9531   -9.5174   -4.9683 C   0  0  0  0  0  0
   12.9539  -10.4594   -5.0470 C   0  0  0  0  0  0
   13.2608  -11.0282   -6.2601 C   0  0  0  0  0  0
   10.0907   -9.0559  -10.6133 N   0  0  0  0  0  0
   10.7733   -9.3203   -8.4459 N   0  0  0  0  0  0
   11.5726  -10.7000  -10.1007 O   0  0  0  0  0  0
    9.5209   -7.0648  -12.5992 O   0  0  0  0  0  0
  2 10  2  0  0  0
  2  6  1  0  0  0
  3  4  1  0  0  0
  3  1  1  0  0  0
  4 11  1  0  0  0
  5 11  1  0  0  0
  5 12  1  0  0  0
  6  7  2  0  0  0
  7  8  1  0  0  0
  9  8  2  0  0  0
 10  9  1  0  0  0
 12  6  1  0  0  0
 13  5  2  0  0  0
 14  3  1  0  0  0
M  END
>  <CHROM.1>
-178.16692844,179.75895301,0.82549969,10.99441698,-9.46048847,-9.27473098
-2.27267025,-0.95225531,1.21096829

>  <Name>
ligand.pdb

>  <RI>
2.24188e+07

>  <Rbt.Current_Directory>
/home/v/Downloads/rDock_2013.1_src/bin

>  <Rbt.Executable>
rbdock ($Id: //depot/dev/client3/rdock/2013.1/src/exe/rbdock.cxx#4 $)

>  <Rbt.Library>
libRbt.so (2013.1, Build901 2013/11/27)

>  <Rbt.Parameter_File>
/home/v/Downloads/rDock_2013.1_src/data/scripts/dock_solv.prm

>  <Rbt.Receptor>
/home/v/Desktop/r.prm

>  <SCORE>
7.49253

>  <SCORE.INTER>
8.4

>  <SCORE.INTER.CONST>
1

>  <SCORE.INTER.POLAR>
0

>  <SCORE.INTER.ROT>
3

>  <SCORE.INTER.SOLV>
0

>  <SCORE.INTER.VDW>
0

>  <SCORE.INTER.norm>
0.6

>  <SCORE.INTRA>
-0.907475

>  <SCORE.INTRA.DIHEDRAL>
-1.6085

>  <SCORE.INTRA.DIHEDRAL.0>
1.6411

>  <SCORE.INTRA.POLAR>
0

>  <SCORE.INTRA.POLAR.0>
0

>  <SCORE.INTRA.REPUL>
0

>  <SCORE.INTRA.REPUL.0>
0

>  <SCORE.INTRA.SOLV>
-0.29607

>  <SCORE.INTRA.SOLV.lig_0>
-16.0602

>  <SCORE.INTRA.VDW>
0.0448084

>  <SCORE.INTRA.VDW.0>
-0.639572

>  <SCORE.INTRA.norm>
-0.0648196

>  <SCORE.RESTR>
0

>  <SCORE.RESTR.CAVITY>
0

>  <SCORE.RESTR.norm>
0

>  <SCORE.SYSTEM>
0

>  <SCORE.SYSTEM.CONST>
0

>  <SCORE.SYSTEM.DIHEDRAL>
0

>  <SCORE.SYSTEM.SOLV>
0

>  <SCORE.SYSTEM.norm>
0

>  <SCORE.heavy>
14

>  <SCORE.norm>
0.53518

$$$$
ligand.pdb
  rDOCK(R)          3D
libRbt.so/2013.1/901 2013/11/27
 14 14  0  0  0  0  0  0  0  0999 V2000
   15.3715   -4.4747  -16.0669 C   0  0  0  0  0  0
   14.7846  -11.9650  -13.4297 C   0  0  0  0  0  0
   15.8431   -5.4492  -14.9998 C   0  0  0  0  0  0
   15.1797   -6.8217  -15.1081 C   0  0  0  0  0  0
   15.1547   -8.9994  -13.9684 C   0  0  0  0  0  0
   15.5644  -11.1065  -12.6635 C   0  0  0  0  0  0
   16.2239  -11.6052  -11.5492 C   0  0  0  0  0  0
   16.1150  -12.9475  -11.2173 C   0  0  0  0  0  0
   15.3301  -13.7900  -11.9718 C   0  0  0  0  0  0
   14.6726  -13.3024  -13.0761 C   0  0  0  0  0  0
   15.6183   -7.7330  -14.0649 N   0  0  0  0  0  0
   15.7171   -9.7282  -12.9500 N   0  0  0  0  0  0
   14.2901   -9.4521  -14.7300 O   0  0  0  0  0  0
   17.2532   -5.6119  -15.0792 O   0  0  0  0  0  0
  2 10  2  0  0  0
  2  6  1  0  0  0
  3  4  1  0  0  0
  3  1  1  0  0  0
  4 11  1  0  0  0
  5 11  1  0  0  0
  5 12  1  0  0  0
  6  7  2  0  0  0
  7  8  1  0  0  0
  9  8  2  0  0  0
 10  9  1  0  0  0
 12  6  1  0  0  0
 13  5  2  0  0  0
 14  3  1  0  0  0
M  END
>  <CHROM.1>
-178.75176567,179.76217938,0.62473179,15.51669565,-9.35686830,-13.70901207
1.49708860,-0.68426478,-0.45758816

>  <Name>
ligand.pdb

>  <RI>
2.24188e+07

>  <Rbt.Current_Directory>
/home/v/Downloads/rDock_2013.1_src/bin

>  <Rbt.Executable>
rbdock ($Id: //depot/dev/client3/rdock/2013.1/src/exe/rbdock.cxx#4 $)

>  <Rbt.Library>
libRbt.so (2013.1, Build901 2013/11/27)

>  <Rbt.Parameter_File>
/home/v/Downloads/rDock_2013.1_src/data/scripts/dock_solv.prm

>  <Rbt.Receptor>
/home/v/Desktop/r.prm

>  <SCORE>
7.49197

>  <SCORE.INTER>
8.4

>  <SCORE.INTER.CONST>
1

>  <SCORE.INTER.POLAR>
0

>  <SCORE.INTER.ROT>
3

>  <SCORE.INTER.SOLV>
0

>  <SCORE.INTER.VDW>
0

>  <SCORE.INTER.norm>
0.6

>  <SCORE.INTRA>
-0.90803

>  <SCORE.INTRA.DIHEDRAL>
-1.61628

>  <SCORE.INTRA.DIHEDRAL.0>
1.6411

>  <SCORE.INTRA.POLAR>
0

>  <SCORE.INTRA.POLAR.0>
0

>  <SCORE.INTRA.REPUL>
0

>  <SCORE.INTRA.REPUL.0>
0

>  <SCORE.INTRA.SOLV>
-0.293464

>  <SCORE.INTRA.SOLV.lig_0>
-16.0602

>  <SCORE.INTRA.VDW>
0.046843

>  <SCORE.INTRA.VDW.0>
-0.639572

>  <SCORE.INTRA.norm>
-0.0648593

>  <SCORE.RESTR>
0

>  <SCORE.RESTR.CAVITY>
0

>  <SCORE.RESTR.norm>
0

>  <SCORE.SYSTEM>
0

>  <SCORE.SYSTEM.CONST>
0

>  <SCORE.SYSTEM.DIHEDRAL>
0

>  <SCORE.SYSTEM.SOLV>
0

>  <SCORE.SYSTEM.norm>
0

>  <SCORE.heavy>
14

>  <SCORE.norm>
0.535141

$$$$
ligand.pdb
  rDOCK(R)          3D
libRbt.so/2013.1/901 2013/11/27
 14 14  0  0  0  0  0  0  0  0999 V2000
   13.9770   -1.9189  -12.2076 C   0  0  0  0  0  0
   14.5031   -9.5373   -9.9512 C   0  0  0  0  0  0
   13.7237   -2.8891  -11.0651 C   0  0  0  0  0  0
   14.0308   -4.3402  -11.4335 C   0  0  0  0  0  0
   13.9599   -6.5913  -10.4490 C   0  0  0  0  0  0
   13.9336   -8.6649   -9.0312 C   0  0  0  0  0  0
   13.5592   -9.1463   -7.7849 C   0  0  0  0  0  0
   13.7667  -10.4790   -7.4611 C   0  0  0  0  0  0
   14.3183  -11.3415   -8.3814 C   0  0  0  0  0  0
   14.6901  -10.8717   -9.6186 C   0  0  0  0  0  0
   13.7611   -5.2584  -10.3402 N   0  0  0  0  0  0
   13.6969   -7.2949   -9.2999 N   0  0  0  0  0  0
   14.3369   -7.1250  -11.5005 O   0  0  0  0  0  0
   14.5070   -2.5252   -9.9359 O   0  0  0  0  0  0
  2 10  2  0  0  0
  2  6  1  0  0  0
  3  4  1  0  0  0
  3  1  1  0  0  0
  4 11  1  0  0  0
  5 11  1  0  0  0
  5 12  1  0  0  0
  6  7  2  0  0  0
  7  8  1  0  0  0
  9  8  2  0  0  0
 10  9  1  0  0  0
 12  6  1  0  0  0
 13  5  2  0  0  0
 14  3  1  0  0  0
M  END
>  <CHROM.1>
-178.95486565,179.86192377,0.17486371,14.06287683,-6.84937093,-9.94925773
-1.63269570,-1.37635627,2.74343171

>  <Name>
ligand.pdb

>  <RI>
2.24188e+07

>  <Rbt.Current_Directory>
/home/v/Downloads/rDock_2013.1_src/bin

>  <Rbt.Executable>
rbdock ($Id: //depot/dev/client3/rdock/2013.1/src/exe/rbdock.cxx#4 $)

>  <Rbt.Library>
libRbt.so (2013.1, Build901 2013/11/27)

>  <Rbt.Parameter_File>
/home/v/Downloads/rDock_2013.1_src/data/scripts/dock_solv.prm

>  <Rbt.Receptor>
/home/v/Desktop/r.prm

>  <SCORE>
7.49229

>  <SCORE.INTER>
8.4

>  <SCORE.INTER.CONST>
1

>  <SCORE.INTER.POLAR>
0

>  <SCORE.INTER.ROT>
3

>  <SCORE.INTER.SOLV>
0

>  <SCORE.INTER.VDW>
0

>  <SCORE.INTER.norm>
0.6

>  <SCORE.INTRA>
-0.90771

>  <SCORE.INTRA.DIHEDRAL>
-1.61943

>  <SCORE.INTRA.DIHEDRAL.0>
1.6411

>  <SCORE.INTRA.POLAR>
0

>  <SCORE.INTRA.POLAR.0>
0

>  <SCORE.INTRA.REPUL>
0

>  <SCORE.INTRA.REPUL.0>
0

>  <SCORE.INTRA.SOLV>
-0.292432

>  <SCORE.INTRA.SOLV.lig_0>
-16.0602

>  <SCORE.INTRA.VDW>
0.0482207

>  <SCORE.INTRA.VDW.0>
-0.639572

>  <SCORE.INTRA.norm>
-0.0648364

>  <SCORE.RESTR>
0

>  <SCORE.RESTR.CAVITY>
0

>  <SCORE.RESTR.norm>
0

>  <SCORE.SYSTEM>
0

>  <SCORE.SYSTEM.CONST>
0

>  <SCORE.SYSTEM.DIHEDRAL>
0

>  <SCORE.SYSTEM.SOLV>
0

>  <SCORE.SYSTEM.norm>
0

>  <SCORE.heavy>
14

>  <SCORE.norm>
0.535164

$$$$
ligand.pdb
  rDOCK(R)          3D
libRbt.so/2013.1/901 2013/11/27
 14 14  0  0  0  0  0  0  0  0999 V2000
   19.9699  -13.3017  -14.0821 C   0  0  0  0  0  0
   13.1874  -11.9325  -10.1417 C   0  0  0  0  0  0
   18.5118  -13.7118  -13.9532 C   0  0  0  0  0  0
   17.7819  -12.9800  -12.8275 C   0  0  0  0  0  0
   15.5745  -12.9025  -11.7491 C   0  0  0  0  0  0
   13.1579  -12.9700  -11.0663 C   0  0  0  0  0  0
   11.9690  -13.6532  -11.2784 C   0  0  0  0  0  0
   10.8237  -13.2914  -10.5846 C   0  0  0  0  0  0
   10.8623  -12.2723   -9.6600 C   0  0  0  0  0  0
   12.0371  -11.5923   -9.4436 C   0  0  0  0  0  0
   16.3988  -13.4049  -12.6957 N   0  0  0  0  0  0
   14.2909  -13.3861  -11.8067 N   0  0  0  0  0  0
   15.9544  -12.0849  -10.9007 O   0  0  0  0  0  0
   17.8293  -13.4713  -15.1769 O   0  0  0  0  0  0
  2 10  2  0  0  0
  2  6  1  0  0  0
  3  4  1  0  0  0
  3  1  1  0  0  0
  4 11  1  0  0  0
  5 11  1  0  0  0
  5 12  1  0  0  0
  6  7  2  0  0  0
  7  8  1  0  0  0
  9  8  2  0  0  0
 10  9  1  0  0  0
 12  6  1  0  0  0
 13  5  2  0  0  0
 14  3  1  0  0  0
M  END
>  <CHROM.1>
-178.62851600,178.92967503,1.40227535,15.02387654,-12.92976015,-11.88824888
-0.47423561,0.20848727,0.98203408

>  <Name>
ligand.pdb

>  <RI>
2.24188e+07

>  <Rbt.Current_Directory>
/home/v/Downloads/rDock_2013.1_src/bin

>  <Rbt.Executable>
rbdock ($Id: //depot/dev/client3/rdock/2013.1/src/exe/rbdock.cxx#4 $)

>  <Rbt.Library>
libRbt.so (2013.1, Build901 2013/11/27)

>  <Rbt.Parameter_File>
/home/v/Downloads/rDock_2013.1_src/data/scripts/dock_solv.prm

>  <Rbt.Receptor>
/home/v/Desktop/r.prm

>  <SCORE>
7.49242

>  <SCORE.INTER>
8.4

>  <SCORE.INTER.CONST>
1

>  <SCORE.INTER.POLAR>
0

>  <SCORE.INTER.ROT>
3

>  <SCORE.INTER.SOLV>
0

>  <SCORE.INTER.VDW>
0

>  <SCORE.INTER.norm>
0.6

>  <SCORE.INTRA>
-0.907583

>  <SCORE.INTRA.DIHEDRAL>
-1.61007

>  <SCORE.INTRA.DIHEDRAL.0>
1.6411

>  <SCORE.INTRA.POLAR>
0

>  <SCORE.INTRA.POLAR.0>
0

>  <SCORE.INTRA.REPUL>
0

>  <SCORE.INTRA.REPUL.0>
0

>  <SCORE.INTRA.SOLV>
-0.295122

>  <SCORE.INTRA.SOLV.lig_0>
-16.0602

>  <SCORE.INTRA.VDW>
0.0450116

>  <SCORE.INTRA.VDW.0>
-0.639572

>  <SCORE.INTRA.norm>
-0.0648274

>  <SCORE.RESTR>
0

>  <SCORE.RESTR.CAVITY>
0

>  <SCORE.RESTR.norm>
0

>  <SCORE.SYSTEM>
0

>  <SCORE.SYSTEM.CONST>
0

>  <SCORE.SYSTEM.DIHEDRAL>
0

>  <SCORE.SYSTEM.SOLV>
0

>  <SCORE.SYSTEM.norm>
0

>  <SCORE.heavy>
14

>  <SCORE.norm>
0.535173

$$$$
ligand.pdb
  rDOCK(R)          3D
libRbt.so/2013.1/901 2013/11/27
 14 14  0  0  0  0  0  0  0  0999 V2000
   15.2056  -11.2531   -7.6421 C   0  0  0  0  0  0
   11.1733   -7.2730  -13.2386 C   0  0  0  0  0  0
   15.3146  -10.5858   -9.0035 C   0  0  0  0  0  0
   13.9805  -10.0387   -9.5100 C   0  0  0  0  0  0
   13.0327   -8.8951  -11.4684 C   0  0  0  0  0  0
   12.5020   -7.5596  -13.5288 C   0  0  0  0  0  0
   13.0500   -7.0956  -14.7162 C   0  0  0  0  0  0
   12.2812   -6.3432  -15.5918 C   0  0  0  0  0  0
   10.9618   -6.0745  -15.3055 C   0  0  0  0  0  0
   10.4119   -6.5323  -14.1319 C   0  0  0  0  0  0
   14.0947   -9.4283  -10.8235 N   0  0  0  0  0  0
   13.3390   -8.3204  -12.6769 N   0  0  0  0  0  0
   11.8846   -8.9347  -11.0072 O   0  0  0  0  0  0
   16.2573   -9.5230   -8.9498 O   0  0  0  0  0  0
  2 10  2  0  0  0
  2  6  1  0  0  0
  3  4  1  0  0  0
  3  1  1  0  0  0
  4 11  1  0  0  0
  5 11  1  0  0  0
  5 12  1  0  0  0
  6  7  2  0  0  0
  7  8  1  0  0  0
  9  8  2  0  0  0
 10  9  1  0  0  0
 12  6  1  0  0  0
 13  5  2  0  0  0
 14  3  1  0  0  0
M  END
>  <CHROM.1>
-178.82465615,179.14095178,0.02092755,13.17308044,-8.48881775,-11.84243034
1.09436188,-0.05304149,2.10701441

>  <Name>
ligand.pdb

>  <RI>
2.24188e+07

>  <Rbt.Current_Directory>
/home/v/Downloads/rDock_2013.1_src/bin

>  <Rbt.Executable>
rbdock ($Id: //depot/dev/client3/rdock/2013.1/src/exe/rbdock.cxx#4 $)

>  <Rbt.Library>
libRbt.so (2013.1, Build901 2013/11/27)

>  <Rbt.Parameter_File>
/home/v/Downloads/rDock_2013.1_src/data/scripts/dock_solv.prm

>  <Rbt.Receptor>
/home/v/Desktop/r.prm

>  <SCORE>
7.49233

>  <SCORE.INTER>
8.4

>  <SCORE.INTER.CONST>
1

>  <SCORE.INTER.POLAR>
0

>  <SCORE.INTER.ROT>
3

>  <SCORE.INTER.SOLV>
0

>  <SCORE.INTER.VDW>
0

>  <SCORE.INTER.norm>
0.6

>  <SCORE.INTRA>
-0.907665

>  <SCORE.INTRA.DIHEDRAL>
-1.61794

>  <SCORE.INTRA.DIHEDRAL.0>
1.6411

>  <SCORE.INTRA.POLAR>
0

>  <SCORE.INTRA.POLAR.0>
0

>  <SCORE.INTRA.REPUL>
0

>  <SCORE.INTRA.REPUL.0>
0

>  <SCORE.INTRA.SOLV>
-0.29397

>  <SCORE.INTRA.SOLV.lig_0>
-16.0602

>  <SCORE.INTRA.VDW>
0.0482917

>  <SCORE.INTRA.VDW.0>
-0.639572

>  <SCORE.INTRA.norm>
-0.0648332

>  <SCORE.RESTR>
0

>  <SCORE.RESTR.CAVITY>
0

>  <SCORE.RESTR.norm>
0

>  <SCORE.SYSTEM>
0

>  <SCORE.SYSTEM.CONST>
0

>  <SCORE.SYSTEM.DIHEDRAL>
0

>  <SCORE.SYSTEM.SOLV>
0

>  <SCORE.SYSTEM.norm>
0

>  <SCORE.heavy>
14

>  <SCORE.norm>
0.535167

$$$$
ligand.pdb
  rDOCK(R)          3D
libRbt.so/2013.1/901 2013/11/27
 14 14  0  0  0  0  0  0  0  0999 V2000
   18.5327  -12.1022   -8.9296 C   0  0  0  0  0  0
   13.5340   -9.6864  -14.6379 C   0  0  0  0  0  0
   18.3974  -11.2268  -10.1649 C   0  0  0  0  0  0
   17.0262  -11.3391  -10.8304 C   0  0  0  0  0  0
   15.8023  -10.4857  -12.7838 C   0  0  0  0  0  0
   14.8479   -9.2469  -14.7497 C   0  0  0  0  0  0
   15.1891   -8.3929  -15.7887 C   0  0  0  0  0  0
   14.2240   -7.9743  -16.6927 C   0  0  0  0  0  0
   12.9274   -8.4239  -16.5851 C   0  0  0  0  0  0
   12.5826   -9.2714  -15.5593 C   0  0  0  0  0  0
   16.9279  -10.5347  -12.0363 N   0  0  0  0  0  0
   15.8780   -9.6362  -13.8595 N   0  0  0  0  0  0
   14.7978  -11.1596  -12.5202 O   0  0  0  0  0  0
   18.6341   -9.8668   -9.8251 O   0  0  0  0  0  0
  2 10  2  0  0  0
  2  6  1  0  0  0
  3  4  1  0  0  0
  3  1  1  0  0  0
  4 11  1  0  0  0
  5 11  1  0  0  0
  5 12  1  0  0  0
  6  7  2  0  0  0
  7  8  1  0  0  0
  9  8  2  0  0  0
 10  9  1  0  0  0
 12  6  1  0  0  0
 13  5  2  0  0  0
 14  3  1  0  0  0
M  END
>  <CHROM.1>
-177.90459154,-179.99649243,0.91112898,15.74580747,-10.00304295,-13.08179654
0.88974679,0.44840695,2.29615322

>  <Name>
ligand.pdb

>  <RI>
2.24188e+07

>  <Rbt.Current_Directory>
/home/v/Downloads/rDock_2013.1_src/bin

>  <Rbt.Executable>
rbdock ($Id: //depot/dev/client3/rdock/2013.1/src/exe/rbdock.cxx#4 $)

>  <Rbt.Library>
libRbt.so (2013.1, Build901 2013/11/27)

>  <Rbt.Parameter_File>
/home/v/Downloads/rDock_2013.1_src/data/scripts/dock_solv.prm

>  <Rbt.Receptor>
/home/v/Desktop/r.prm

>  <SCORE>
7.49329

>  <SCORE.INTER>
8.4

>  <SCORE.INTER.CONST>
1

>  <SCORE.INTER.POLAR>
0

>  <SCORE.INTER.ROT>
3

>  <SCORE.INTER.SOLV>
0

>  <SCORE.INTER.VDW>
0

>  <SCORE.INTER.norm>
0.6

>  <SCORE.INTRA>
-0.906711

>  <SCORE.INTRA.DIHEDRAL>
-1.60423

>  <SCORE.INTRA.DIHEDRAL.0>
1.6411

>  <SCORE.INTRA.POLAR>
0

>  <SCORE.INTRA.POLAR.0>
0

>  <SCORE.INTRA.REPUL>
0

>  <SCORE.INTRA.REPUL.0>
0

>  <SCORE.INTRA.SOLV>
-0.296904

>  <SCORE.INTRA.SOLV.lig_0>
-16.0602

>  <SCORE.INTRA.VDW>
0.0438537

>  <SCORE.INTRA.VDW.0>
-0.639572

>  <SCORE.INTRA.norm>
-0.0647651

>  <SCORE.RESTR>
0

>  <SCORE.RESTR.CAVITY>
0

>  <SCORE.RESTR.norm>
0

>  <SCORE.SYSTEM>
0

>  <SCORE.SYSTEM.CONST>
0

>  <SCORE.SYSTEM.DIHEDRAL>
0

>  <SCORE.SYSTEM.SOLV>
0

>  <SCORE.SYSTEM.norm>
0

>  <SCORE.heavy>
14

>  <SCORE.norm>
0.535235

$$$$
ligand.pdb
  rDOCK(R)          3D
libRbt.so/2013.1/901 2013/11/27
 14 14  0  0  0  0  0  0  0  0999 V2000
   19.0906   -9.2629   -8.9422 C   0  0  0  0  0  0
   12.6155   -7.8854  -13.3670 C   0  0  0  0  0  0
   18.0049   -9.9188   -9.7799 C   0  0  0  0  0  0
   16.9677   -8.9240  -10.2999 C   0  0  0  0  0  0
   14.9029   -8.8761  -11.6327 C   0  0  0  0  0  0
   12.9650   -9.2195  -13.1937 C   0  0  0  0  0  0
   12.2227  -10.2016  -13.8339 C   0  0  0  0  0  0
   11.1555   -9.8500  -14.6472 C   0  0  0  0  0  0
   10.8054   -8.5279  -14.8039 C   0  0  0  0  0  0
   11.5354   -7.5498  -14.1714 C   0  0  0  0  0  0
   15.9272   -9.5673  -11.0838 N   0  0  0  0  0  0
   14.0428   -9.6430  -12.3789 N   0  0  0  0  0  0
   14.7546   -7.6588  -11.4639 O   0  0  0  0  0  0
   18.5870  -10.5969  -10.8855 O   0  0  0  0  0  0
  2 10  2  0  0  0
  2  6  1  0  0  0
  3  4  1  0  0  0
  3  1  1  0  0  0
  4 11  1  0  0  0
  5 11  1  0  0  0
  5 12  1  0  0  0
  6  7  2  0  0  0
  7  8  1  0  0  0
  9  8  2  0  0  0
 10  9  1  0  0  0
 12  6  1  0  0  0
 13  5  2  0  0  0
 14  3  1  0  0  0
M  END
>  <CHROM.1>
-179.24450697,179.53633230,0.50116691,14.67937177,-9.12661896,-12.09504882
0.08706977,-0.57700677,0.35048256

>  <Name>
ligand.pdb

>  <RI>
2.24188e+07

>  <Rbt.Current_Directory>
/home/v/Downloads/rDock_2013.1_src/bin

>  <Rbt.Executable>
rbdock ($Id: //depot/dev/client3/rdock/2013.1/src/exe/rbdock.cxx#4 $)

>  <Rbt.Library>
libRbt.so (2013.1, Build901 2013/11/27)

>  <Rbt.Parameter_File>
/home/v/Downloads/rDock_2013.1_src/data/scripts/dock_solv.prm

>  <Rbt.Receptor>
/home/v/Desktop/r.prm

>  <SCORE>
7.49252

>  <SCORE.INTER>
8.4

>  <SCORE.INTER.CONST>
1

>  <SCORE.INTER.POLAR>
0

>  <SCORE.INTER.ROT>
3

>  <SCORE.INTER.SOLV>
0

>  <SCORE.INTER.VDW>
0

>  <SCORE.INTER.norm>
0.6

>  <SCORE.INTRA>
-0.907485

>  <SCORE.INTRA.DIHEDRAL>
-1.62054

>  <SCORE.INTRA.DIHEDRAL.0>
1.6411

>  <SCORE.INTRA.POLAR>
0

>  <SCORE.INTRA.POLAR.0>
0

>  <SCORE.INTRA.REPUL>
0

>  <SCORE.INTRA.REPUL.0>
0

>  <SCORE.INTRA.SOLV>
-0.291578

>  <SCORE.INTRA.SOLV.lig_0>
-16.0602

>  <SCORE.INTRA.VDW>
0.0485756

>  <SCORE.INTRA.VDW.0>
-0.639572

>  <SCORE.INTRA.norm>
-0.0648203

>  <SCORE.RESTR>
0

>  <SCORE.RESTR.CAVITY>
0

>  <SCORE.RESTR.norm>
0

>  <SCORE.SYSTEM>
0

>  <SCORE.SYSTEM.CONST>
0

>  <SCORE.SYSTEM.DIHEDRAL>
0

>  <SCORE.SYSTEM.SOLV>
0

>  <SCORE.SYSTEM.norm>
0

>  <SCORE.heavy>
14

>  <SCORE.norm>
0.53518

$$$$
ligand.pdb
  rDOCK(R)          3D
libRbt.so/2013.1/901 2013/11/27
 14 14  0  0  0  0  0  0  0  0999 V2000
   17.4603   -9.2584  -14.5247 C   0  0  0  0  0  0
   14.5830   -5.8426   -7.9334 C   0  0  0  0  0  0
   16.3456   -9.3092  -13.4925 C   0  0  0  0  0  0
   16.5237   -8.2885  -12.3691 C   0  0  0  0  0  0
   15.4248   -7.5538  -10.2968 C   0  0  0  0  0  0
   13.9094   -6.9738   -8.3791 C   0  0  0  0  0  0
   12.7731   -7.3944   -7.7029 C   0  0  0  0  0  0
   12.3111   -6.6826   -6.6057 C   0  0  0  0  0  0
   12.9903   -5.5711   -6.1605 C   0  0  0  0  0  0
   14.1177   -5.1497   -6.8246 C   0  0  0  0  0  0
   15.4674   -8.3687  -11.3748 N   0  0  0  0  0  0
   14.3286   -7.7423   -9.4921 N   0  0  0  0  0  0
   16.3072   -6.7192  -10.0574 O   0  0  0  0  0  0
   15.0902   -9.0870  -14.1215 O   0  0  0  0  0  0
  2 10  2  0  0  0
  2  6  1  0  0  0
  3  4  1  0  0  0
  3  1  1  0  0  0
  4 11  1  0  0  0
  5 11  1  0  0  0
  5 12  1  0  0  0
  6  7  2  0  0  0
  7  8  1  0  0  0
  9  8  2  0  0  0
 10  9  1  0  0  0
 12  6  1  0  0  0
 13  5  2  0  0  0
 14  3  1  0  0  0
M  END
>  <CHROM.1>
-178.71721201,-179.71694893,0.97916243,14.89700388,-7.47141413,-10.09152416
-1.12570260,0.42764263,0.97002683

>  <Name>
ligand.pdb

>  <RI>
2.24188e+07

>  <Rbt.Current_Directory>
/home/v/Downloads/rDock_2013.1_src/bin

>  <Rbt.Executable>
rbdock ($Id: //depot/dev/client3/rdock/2013.1/src/exe/rbdock.cxx#4 $)

>  <Rbt.Library>
libRbt.so (2013.1, Build901 2013/11/27)

>  <Rbt.Parameter_File>
/home/v/Downloads/rDock_2013.1_src/data/scripts/dock_solv.prm

>  <Rbt.Receptor>
/home/v/Desktop/r.prm

>  <SCORE>
7.49223

>  <SCORE.INTER>
8.4

>  <SCORE.INTER.CONST>
1

>  <SCORE.INTER.POLAR>
0

>  <SCORE.INTER.ROT>
3

>  <SCORE.INTER.SOLV>
0

>  <SCORE.INTER.VDW>
0

>  <SCORE.INTER.norm>
0.6

>  <SCORE.INTRA>
-0.90777

>  <SCORE.INTRA.DIHEDRAL>
-1.61436

>  <SCORE.INTRA.DIHEDRAL.0>
1.6411

>  <SCORE.INTRA.POLAR>
0

>  <SCORE.INTRA.POLAR.0>
0

>  <SCORE.INTRA.REPUL>
0

>  <SCORE.INTRA.REPUL.0>
0

>  <SCORE.INTRA.SOLV>
-0.292904

>  <SCORE.INTRA.SOLV.lig_0>
-16.0602

>  <SCORE.INTRA.VDW>
0.0458638

>  <SCORE.INTRA.VDW.0>
-0.639572

>  <SCORE.INTRA.norm>
-0.0648407

>  <SCORE.RESTR>
0

>  <SCORE.RESTR.CAVITY>
0

>  <SCORE.RESTR.norm>
0

>  <SCORE.SYSTEM>
0

>  <SCORE.SYSTEM.CONST>
0

>  <SCORE.SYSTEM.DIHEDRAL>
0

>  <SCORE.SYSTEM.SOLV>
0

>  <SCORE.SYSTEM.norm>
0

>  <SCORE.heavy>
14

>  <SCORE.norm>
0.535159

$$$$
ligand.pdb
  rDOCK(R)          3D
libRbt.so/2013.1/901 2013/11/27
 14 14  0  0  0  0  0  0  0  0999 V2000
   17.0580  -10.0924  -15.4084 C   0  0  0  0  0  0
   17.9769   -8.9278   -7.5852 C   0  0  0  0  0  0
   16.9242  -10.7389  -14.0392 C   0  0  0  0  0  0
   17.3960   -9.8338  -12.9017 C   0  0  0  0  0  0
   17.6644   -9.8598  -10.4585 C   0  0  0  0  0  0
   17.5911  -10.2061   -7.9715 C   0  0  0  0  0  0
   17.3422  -11.1610   -6.9961 C   0  0  0  0  0  0
   17.4640  -10.8345   -5.6536 C   0  0  0  0  0  0
   17.8599   -9.5709   -5.2773 C   0  0  0  0  0  0
   18.1097   -8.6203   -6.2383 C   0  0  0  0  0  0
   17.2902  -10.4756  -11.6025 N   0  0  0  0  0  0
   17.4476  -10.6013   -9.3237 N   0  0  0  0  0  0
   18.1678   -8.7289  -10.4447 O   0  0  0  0  0  0
   15.5706  -11.1051  -13.8048 O   0  0  0  0  0  0
  2 10  2  0  0  0
  2  6  1  0  0  0
  3  4  1  0  0  0
  3  1  1  0  0  0
  4 11  1  0  0  0
  5 11  1  0  0  0
  5 12  1  0  0  0
  6  7  2  0  0  0
  7  8  1  0  0  0
  9  8  2  0  0  0
 10  9  1  0  0  0
 12  6  1  0  0  0
 13  5  2  0  0  0
 14  3  1  0  0  0
M  END
>  <CHROM.1>
-178.71310145,179.39656372,1.00255166,17.39496774,-10.05423183,-9.99540066
-1.82482142,1.04089073,1.71755989

>  <Name>
ligand.pdb

>  <RI>
2.24188e+07

>  <Rbt.Current_Directory>
/home/v/Downloads/rDock_2013.1_src/bin

>  <Rbt.Executable>
rbdock ($Id: //depot/dev/client3/rdock/2013.1/src/exe/rbdock.cxx#4 $)

>  <Rbt.Library>
libRbt.so (2013.1, Build901 2013/11/27)

>  <Rbt.Parameter_File>
/home/v/Downloads/rDock_2013.1_src/data/scripts/dock_solv.prm

>  <Rbt.Receptor>
/home/v/Desktop/r.prm

>  <SCORE>
7.492

>  <SCORE.INTER>
8.4

>  <SCORE.INTER.CONST>
1

>  <SCORE.INTER.POLAR>
0

>  <SCORE.INTER.ROT>
3

>  <SCORE.INTER.SOLV>
0

>  <SCORE.INTER.VDW>
0

>  <SCORE.INTER.norm>
0.6

>  <SCORE.INTRA>
-0.907997

>  <SCORE.INTRA.DIHEDRAL>
-1.61397

>  <SCORE.INTRA.DIHEDRAL.0>
1.6411

>  <SCORE.INTRA.POLAR>
0

>  <SCORE.INTRA.POLAR.0>
0

>  <SCORE.INTRA.REPUL>
0

>  <SCORE.INTRA.REPUL.0>
0

>  <SCORE.INTRA.SOLV>
-0.294128

>  <SCORE.INTRA.SOLV.lig_0>
-16.0602

>  <SCORE.INTRA.VDW>
0.0460504

>  <SCORE.INTRA.VDW.0>
-0.639572

>  <SCORE.INTRA.norm>
-0.064857

>  <SCORE.RESTR>
0

>  <SCORE.RESTR.CAVITY>
0

>  <SCORE.RESTR.norm>
0

>  <SCORE.SYSTEM>
0

>  <SCORE.SYSTEM.CONST>
0

>  <SCORE.SYSTEM.DIHEDRAL>
0

>  <SCORE.SYSTEM.SOLV>
0

>  <SCORE.SYSTEM.norm>
0

>  <SCORE.heavy>
14

>  <SCORE.norm>
0.535143

$$$$
ligand.pdb
  rDOCK(R)          3D
libRbt.so/2013.1/901 2013/11/27
 14 14  0  0  0  0  0  0  0  0999 V2000
   22.2486  -10.8165  -11.8076 C   0  0  0  0  0  0
   14.6642  -11.7340   -9.5569 C   0  0  0  0  0  0
   20.8021  -10.6237  -12.2336 C   0  0  0  0  0  0
   19.8005  -11.1144  -11.1888 C   0  0  0  0  0  0
   17.3757  -11.3649  -10.8736 C   0  0  0  0  0  0
   14.8663  -11.2520  -10.8449 C   0  0  0  0  0  0
   13.7665  -10.9198  -11.6229 C   0  0  0  0  0  0
   12.4842  -11.0549  -11.1114 C   0  0  0  0  0  0
   12.2897  -11.5460   -9.8402 C   0  0  0  0  0  0
   13.3747  -11.8787   -9.0645 C   0  0  0  0  0  0
   18.4234  -10.9560  -11.6240 N   0  0  0  0  0  0
   16.1484  -11.0899  -11.4238 N   0  0  0  0  0  0
   17.5190  -11.9457   -9.7898 O   0  0  0  0  0  0
   20.5530   -9.2498  -12.5004 O   0  0  0  0  0  0
  2 10  2  0  0  0
  2  6  1  0  0  0
  3  4  1  0  0  0
  3  1  1  0  0  0
  4 11  1  0  0  0
  5 11  1  0  0  0
  5 12  1  0  0  0
  6  7  2  0  0  0
  7  8  1  0  0  0
  9  8  2  0  0  0
 10  9  1  0  0  0
 12  6  1  0  0  0
 13  5  2  0  0  0
 14  3  1  0  0  0
M  END
>  <CHROM.1>
-178.49639656,177.79502991,0.44178804,16.89498801,-11.08840918,-10.98570283
-0.24583024,-0.01835663,2.16601311

>  <Name>
ligand.pdb

>  <RI>
2.24188e+07

>  <Rbt.Current_Directory>
/home/v/Downloads/rDock_2013.1_src/bin

>  <Rbt.Executable>
rbdock ($Id: //depot/dev/client3/rdock/2013.1/src/exe/rbdock.cxx#4 $)

>  <Rbt.Library>
libRbt.so (2013.1, Build901 2013/11/27)

>  <Rbt.Parameter_File>
/home/v/Downloads/rDock_2013.1_src/data/scripts/dock_solv.prm

>  <Rbt.Receptor>
/home/v/Desktop/r.prm

>  <SCORE>
7.49328

>  <SCORE.INTER>
8.4

>  <SCORE.INTER.CONST>
1

>  <SCORE.INTER.POLAR>
0

>  <SCORE.INTER.ROT>
3

>  <SCORE.INTER.SOLV>
0

>  <SCORE.INTER.VDW>
0

>  <SCORE.INTER.norm>
0.6

>  <SCORE.INTRA>
-0.906717

>  <SCORE.INTRA.DIHEDRAL>
-1.61021

>  <SCORE.INTRA.DIHEDRAL.0>
1.6411

>  <SCORE.INTRA.POLAR>
0

>  <SCORE.INTRA.POLAR.0>
0

>  <SCORE.INTRA.REPUL>
0

>  <SCORE.INTRA.REPUL.0>
0

>  <SCORE.INTRA.SOLV>
-0.297081

>  <SCORE.INTRA.SOLV.lig_0>
-16.0602

>  <SCORE.INTRA.VDW>
0.0469276

>  <SCORE.INTRA.VDW.0>
-0.639572

>  <SCORE.INTRA.norm>
-0.0647655

>  <SCORE.RESTR>
0

>  <SCORE.RESTR.CAVITY>
0

>  <SCORE.RESTR.norm>
0

>  <SCORE.SYSTEM>
0

>  <SCORE.SYSTEM.CONST>
0

>  <SCORE.SYSTEM.DIHEDRAL>
0

>  <SCORE.SYSTEM.SOLV>
0

>  <SCORE.SYSTEM.norm>
0

>  <SCORE.heavy>
14

>  <SCORE.norm>
0.535235

$$$$
ligand.pdb
  rDOCK(R)          3D
libRbt.so/2013.1/901 2013/11/27
 14 14  0  0  0  0  0  0  0  0999 V2000
    8.7367  -11.9172   -7.9890 C   0  0  0  0  0  0
   16.0893   -9.2781   -9.5318 C   0  0  0  0  0  0
    9.9226  -12.0456   -8.9312 C   0  0  0  0  0  0
   11.0584  -11.0788   -8.5982 C   0  0  0  0  0  0
   13.2772  -10.4196   -9.4255 C   0  0  0  0  0  0
   15.5619  -10.1854  -10.4432 C   0  0  0  0  0  0
   16.3455  -10.6074  -11.5078 C   0  0  0  0  0  0
   17.6431  -10.1379  -11.6475 C   0  0  0  0  0  0
   18.1553   -9.2287  -10.7496 C   0  0  0  0  0  0
   17.3840   -8.8051   -9.6935 C   0  0  0  0  0  0
   12.1734  -11.1943   -9.5226 N   0  0  0  0  0  0
   14.2466  -10.7025  -10.3554 N   0  0  0  0  0  0
   13.3920   -9.5273   -8.5751 O   0  0  0  0  0  0
   10.4258  -13.3748   -8.9008 O   0  0  0  0  0  0
  2 10  2  0  0  0
  2  6  1  0  0  0
  3  4  1  0  0  0
  3  1  1  0  0  0
  4 11  1  0  0  0
  5 11  1  0  0  0
  5 12  1  0  0  0
  6  7  2  0  0  0
  7  8  1  0  0  0
  9  8  2  0  0  0
 10  9  1  0  0  0
 12  6  1  0  0  0
 13  5  2  0  0  0
 14  3  1  0  0  0
M  END
>  <CHROM.1>
-178.85219691,179.03352577,0.98085165,13.74307610,-10.65667580,-9.65100392
3.06612120,-0.41798803,-2.45427758

>  <Name>
ligand.pdb

>  <RI>
2.24188e+07

>  <Rbt.Current_Directory>
/home/v/Downloads/rDock_2013.1_src/bin

>  <Rbt.Executable>
rbdock ($Id: //depot/dev/client3/rdock/2013.1/src/exe/rbdock.cxx#4 $)

>  <Rbt.Library>
libRbt.so (2013.1, Build901 2013/11/27)

>  <Rbt.Parameter_File>
/home/v/Downloads/rDock_2013.1_src/data/scripts/dock_solv.prm

>  <Rbt.Receptor>
/home/v/Desktop/r.prm

>  <SCORE>
7.49213

>  <SCORE.INTER>
8.4

>  <SCORE.INTER.CONST>
1

>  <SCORE.INTER.POLAR>
0

>  <SCORE.INTER.ROT>
3

>  <SCORE.INTER.SOLV>
0

>  <SCORE.INTER.VDW>
0

>  <SCORE.INTER.norm>
0.6

>  <SCORE.INTRA>
-0.907874

>  <SCORE.INTRA.DIHEDRAL>
-1.61494

>  <SCORE.INTRA.DIHEDRAL.0>
1.6411

>  <SCORE.INTRA.POLAR>
0

>  <SCORE.INTRA.POLAR.0>
0

>  <SCORE.INTRA.REPUL>
0

>  <SCORE.INTRA.REPUL.0>
0

>  <SCORE.INTRA.SOLV>
-0.29398

>  <SCORE.INTRA.SOLV.lig_0>
-16.0602

>  <SCORE.INTRA.VDW>
0.046588

>  <SCORE.INTRA.VDW.0>
-0.639572

>  <SCORE.INTRA.norm>
-0.0648482

>  <SCORE.RESTR>
0

>  <SCORE.RESTR.CAVITY>
0

>  <SCORE.RESTR.norm>
0

>  <SCORE.SYSTEM>
0

>  <SCORE.SYSTEM.CONST>
0

>  <SCORE.SYSTEM.DIHEDRAL>
0

>  <SCORE.SYSTEM.SOLV>
0

>  <SCORE.SYSTEM.norm>
0

>  <SCORE.heavy>
14

>  <SCORE.norm>
0.535152

$$$$
ligand.pdb
  rDOCK(R)          3D
libRbt.so/2013.1/901 2013/11/27
 14 14  0  0  0  0  0  0  0  0999 V2000
   13.4913   -2.3507  -12.8457 C   0  0  0  0  0  0
   13.9503   -8.8459   -8.2624 C   0  0  0  0  0  0
   13.5796   -2.8473  -11.4117 C   0  0  0  0  0  0
   13.5586   -4.3716  -11.3042 C   0  0  0  0  0  0
   13.5965   -6.1427   -9.6002 C   0  0  0  0  0  0
   13.8571   -7.6311   -7.5934 C   0  0  0  0  0  0
   13.9062   -7.6173   -6.2068 C   0  0  0  0  0  0
   14.0613   -8.8023   -5.5028 C   0  0  0  0  0  0
   14.1390  -10.0038   -6.1702 C   0  0  0  0  0  0
   14.0894  -10.0251   -7.5438 C   0  0  0  0  0  0
   13.6095   -4.8308   -9.9267 N   0  0  0  0  0  0
   13.6993   -6.3883   -8.2535 N   0  0  0  0  0  0
   13.4905   -7.0390  -10.4476 O   0  0  0  0  0  0
   14.7667   -2.3590  -10.8005 O   0  0  0  0  0  0
  2 10  2  0  0  0
  2  6  1  0  0  0
  3  4  1  0  0  0
  3  1  1  0  0  0
  4 11  1  0  0  0
  5 11  1  0  0  0
  5 12  1  0  0  0
  6  7  2  0  0  0
  7  8  1  0  0  0
  9  8  2  0  0  0
 10  9  1  0  0  0
 12  6  1  0  0  0
 13  5  2  0  0  0
 14  3  1  0  0  0
M  END
>  <CHROM.1>
-178.53974034,179.75635599,0.79336546,13.84551191,-6.25678005,-9.09962123
1.69134857,-1.36805786,-0.56326264

>  <Name>
ligand.pdb

>  <RI>
2.24188e+07

>  <Rbt.Current_Directory>
/home/v/Downloads/rDock_2013.1_src/bin

>  <Rbt.Executable>
rbdock ($Id: //depot/dev/client3/rdock/2013.1/src/exe/rbdock.cxx#4 $)

>  <Rbt.Library>
libRbt.so (2013.1, Build901 2013/11/27)

>  <Rbt.Parameter_File>
/home/v/Downloads/rDock_2013.1_src/data/scripts/dock_solv.prm

>  <Rbt.Receptor>
/home/v/Desktop/r.prm

>  <SCORE>
7.49202

>  <SCORE.INTER>
8.4

>  <SCORE.INTER.CONST>
1

>  <SCORE.INTER.POLAR>
0

>  <SCORE.INTER.ROT>
3

>  <SCORE.INTER.SOLV>
0

>  <SCORE.INTER.VDW>
0

>  <SCORE.INTER.norm>
0.6

>  <SCORE.INTRA>
-0.907981

>  <SCORE.INTRA.DIHEDRAL>
-1.61336

>  <SCORE.INTRA.DIHEDRAL.0>
1.6411

>  <SCORE.INTRA.POLAR>
0

>  <SCORE.INTRA.POLAR.0>
0

>  <SCORE.INTRA.REPUL>
0

>  <SCORE.INTRA.REPUL.0>
0

>  <SCORE.INTRA.SOLV>
-0.294415

>  <SCORE.INTRA.SOLV.lig_0>
-16.0602

>  <SCORE.INTRA.VDW>
0.0459064

>  <SCORE.INTRA.VDW.0>
-0.639572

>  <SCORE.INTRA.norm>
-0.0648558

>  <SCORE.RESTR>
0

>  <SCORE.RESTR.CAVITY>
0

>  <SCORE.RESTR.norm>
0

>  <SCORE.SYSTEM>
0

>  <SCORE.SYSTEM.CONST>
0

>  <SCORE.SYSTEM.DIHEDRAL>
0

>  <SCORE.SYSTEM.SOLV>
0

>  <SCORE.SYSTEM.norm>
0

>  <SCORE.heavy>
14

>  <SCORE.norm>
0.535144

$$$$
ligand.pdb
  rDOCK(R)          3D
libRbt.so/2013.1/901 2013/11/27
 14 14  0  0  0  0  0  0  0  0999 V2000
   17.4117   -9.5750   -4.4470 C   0  0  0  0  0  0
   16.5454   -9.2130  -12.3550 C   0  0  0  0  0  0
   17.8405  -10.1964   -5.7663 C   0  0  0  0  0  0
   17.1367   -9.5799   -6.9747 C   0  0  0  0  0  0
   17.0284   -9.8187   -9.4187 C   0  0  0  0  0  0
   17.3555  -10.2352  -11.8743 C   0  0  0  0  0  0
   17.9973  -11.0706  -12.7772 C   0  0  0  0  0  0
   17.8409  -10.8744  -14.1414 C   0  0  0  0  0  0
   17.0263   -9.8692  -14.6115 C   0  0  0  0  0  0
   16.3860   -9.0388  -13.7226 C   0  0  0  0  0  0
   17.5351  -10.2026   -8.2254 N   0  0  0  0  0  0
   17.5569  -10.4865  -10.4954 N   0  0  0  0  0  0
   16.1558   -8.9466   -9.5223 O   0  0  0  0  0  0
   19.2458  -10.0607   -5.9335 O   0  0  0  0  0  0
  2 10  2  0  0  0
  2  6  1  0  0  0
  3  4  1  0  0  0
  3  1  1  0  0  0
  4 11  1  0  0  0
  5 11  1  0  0  0
  5 12  1  0  0  0
  6  7  2  0  0  0
  7  8  1  0  0  0
  9  8  2  0  0  0
 10  9  1  0  0  0
 12  6  1  0  0  0
 13  5  2  0  0  0
 14  3  1  0  0  0
M  END
>  <CHROM.1>
-178.77472024,179.52568500,0.08015543,17.37521394,-9.92443457,-9.85928740
1.45431522,-0.67343391,1.47220821

>  <Name>
ligand.pdb

>  <RI>
2.24188e+07

>  <Rbt.Current_Directory>
/home/v/Downloads/rDock_2013.1_src/bin

>  <Rbt.Executable>
rbdock ($Id: //depot/dev/client3/rdock/2013.1/src/exe/rbdock.cxx#4 $)

>  <Rbt.Library>
libRbt.so (2013.1, Build901 2013/11/27)

>  <Rbt.Parameter_File>
/home/v/Downloads/rDock_2013.1_src/data/scripts/dock_solv.prm

>  <Rbt.Receptor>
/home/v/Desktop/r.prm

>  <SCORE>
7.49221

>  <SCORE.INTER>
8.4

>  <SCORE.INTER.CONST>
1

>  <SCORE.INTER.POLAR>
0

>  <SCORE.INTER.ROT>
3

>  <SCORE.INTER.SOLV>
0

>  <SCORE.INTER.VDW>
0

>  <SCORE.INTER.norm>
0.6

>  <SCORE.INTRA>
-0.907793

>  <SCORE.INTRA.DIHEDRAL>
-1.61781

>  <SCORE.INTRA.DIHEDRAL.0>
1.6411

>  <SCORE.INTRA.POLAR>
0

>  <SCORE.INTRA.POLAR.0>
0

>  <SCORE.INTRA.REPUL>
0

>  <SCORE.INTRA.REPUL.0>
0

>  <SCORE.INTRA.SOLV>
-0.293686

>  <SCORE.INTRA.SOLV.lig_0>
-16.0602

>  <SCORE.INTRA.VDW>
0.0479527

>  <SCORE.INTRA.VDW.0>
-0.639572

>  <SCORE.INTRA.norm>
-0.0648424

>  <SCORE.RESTR>
0

>  <SCORE.RESTR.CAVITY>
0

>  <SCORE.RESTR.norm>
0

>  <SCORE.SYSTEM>
0

>  <SCORE.SYSTEM.CONST>
0

>  <SCORE.SYSTEM.DIHEDRAL>
0

>  <SCORE.SYSTEM.SOLV>
0

>  <SCORE.SYSTEM.norm>
0

>  <SCORE.heavy>
14

>  <SCORE.norm>
0.535158

$$$$
ligand.pdb
  rDOCK(R)          3D
libRbt.so/2013.1/901 2013/11/27
 14 14  0  0  0  0  0  0  0  0999 V2000
   12.7365   -9.1454  -14.9161 C   0  0  0  0  0  0
   13.5297   -9.0336   -6.9939 C   0  0  0  0  0  0
   13.7361   -9.0421  -13.7756 C   0  0  0  0  0  0
   13.0727   -9.0196  -12.3990 C   0  0  0  0  0  0
   13.6682   -8.8376  -10.0212 C   0  0  0  0  0  0
   14.6926   -8.8297   -7.7275 C   0  0  0  0  0  0
   15.8978   -8.6795   -7.0565 C   0  0  0  0  0  0
   15.9380   -8.7477   -5.6717 C   0  0  0  0  0  0
   14.7811   -8.9360   -4.9498 C   0  0  0  0  0  0
   13.5834   -9.0839   -5.6079 C   0  0  0  0  0  0
   14.0371   -8.8806  -11.3212 N   0  0  0  0  0  0
   14.7183   -8.7517   -9.1411 N   0  0  0  0  0  0
   12.4833   -8.8636   -9.6637 O   0  0  0  0  0  0
   14.6486  -10.1309  -13.8290 O   0  0  0  0  0  0
  2 10  2  0  0  0
  2  6  1  0  0  0
  3  4  1  0  0  0
  3  1  1  0  0  0
  4 11  1  0  0  0
  5 11  1  0  0  0
  5 12  1  0  0  0
  6  7  2  0  0  0
  7  8  1  0  0  0
  9  8  2  0  0  0
 10  9  1  0  0  0
 12  6  1  0  0  0
 13  5  2  0  0  0
 14  3  1  0  0  0
M  END
>  <CHROM.1>
-178.27946216,179.96806192,0.90048782,14.07398375,-9.01576601,-9.66161792
1.73331079,0.07359500,-1.63978788

>  <Name>
ligand.pdb

>  <RI>
2.24188e+07

>  <Rbt.Current_Directory>
/home/v/Downloads/rDock_2013.1_src/bin

>  <Rbt.Executable>
rbdock ($Id: //depot/dev/client3/rdock/2013.1/src/exe/rbdock.cxx#4 $)

>  <Rbt.Library>
libRbt.so (2013.1, Build901 2013/11/27)

>  <Rbt.Parameter_File>
/home/v/Downloads/rDock_2013.1_src/data/scripts/dock_solv.prm

>  <Rbt.Receptor>
/home/v/Desktop/r.prm

>  <SCORE>
7.4924

>  <SCORE.INTER>
8.4

>  <SCORE.INTER.CONST>
1

>  <SCORE.INTER.POLAR>
0

>  <SCORE.INTER.ROT>
3

>  <SCORE.INTER.SOLV>
0

>  <SCORE.INTER.VDW>
0

>  <SCORE.INTER.norm>
0.6

>  <SCORE.INTRA>
-0.907604

>  <SCORE.INTRA.DIHEDRAL>
-1.60973

>  <SCORE.INTRA.DIHEDRAL.0>
1.6411

>  <SCORE.INTRA.POLAR>
0

>  <SCORE.INTRA.POLAR.0>
0

>  <SCORE.INTRA.REPUL>
0

>  <SCORE.INTRA.REPUL.0>
0

>  <SCORE.INTRA.SOLV>
-0.295285

>  <SCORE.INTRA.SOLV.lig_0>
-16.0602

>  <SCORE.INTRA.VDW>
0.044901

>  <SCORE.INTRA.VDW.0>
-0.639572

>  <SCORE.INTRA.norm>
-0.0648289

>  <SCORE.RESTR>
0

>  <SCORE.RESTR.CAVITY>
0

>  <SCORE.RESTR.norm>
0

>  <SCORE.SYSTEM>
0

>  <SCORE.SYSTEM.CONST>
0

>  <SCORE.SYSTEM.DIHEDRAL>
0

>  <SCORE.SYSTEM.SOLV>
0

>  <SCORE.SYSTEM.norm>
0

>  <SCORE.heavy>
14

>  <SCORE.norm>
0.535171

$$$$
ligand.pdb
  rDOCK(R)          3D
libRbt.so/2013.1/901 2013/11/27
 14 14  0  0  0  0  0  0  0  0999 V2000
   19.1968  -11.4208  -10.3765 C   0  0  0  0  0  0
   13.3194   -6.4643  -12.4473 C   0  0  0  0  0  0
   18.6342  -10.5748  -11.5072 C   0  0  0  0  0  0
   17.3085   -9.9038  -11.1496 C   0  0  0  0  0  0
   15.6037   -8.4432  -12.1507 C   0  0  0  0  0  0
   14.2130   -6.8076  -13.4551 C   0  0  0  0  0  0
   14.0690   -6.2347  -14.7106 C   0  0  0  0  0  0
   13.0533   -5.3203  -14.9474 C   0  0  0  0  0  0
   12.1628   -4.9947  -13.9494 C   0  0  0  0  0  0
   12.2985   -5.5597  -12.7036 C   0  0  0  0  0  0
   16.7637   -9.1303  -12.2523 N   0  0  0  0  0  0
   15.2705   -7.7324  -13.2769 N   0  0  0  0  0  0
   14.9029   -8.4663  -11.1304 O   0  0  0  0  0  0
   19.5721   -9.5727  -11.8775 O   0  0  0  0  0  0
  2 10  2  0  0  0
  2  6  1  0  0  0
  3  4  1  0  0  0
  3  1  1  0  0  0
  4 11  1  0  0  0
  5 11  1  0  0  0
  5 12  1  0  0  0
  6  7  2  0  0  0
  7  8  1  0  0  0
  9  8  2  0  0  0
 10  9  1  0  0  0
 12  6  1  0  0  0
 13  5  2  0  0  0
 14  3  1  0  0  0
M  END
>  <CHROM.1>
-178.33429341,-179.35800227,0.58288268,15.57126130,-7.99272442,-12.50260536
0.62960253,-0.44725100,2.10133272

>  <Name>
ligand.pdb

>  <RI>
2.24188e+07

>  <Rbt.Current_Directory>
/home/v/Downloads/rDock_2013.1_src/bin

>  <Rbt.Executable>
rbdock ($Id: //depot/dev/client3/rdock/2013.1/src/exe/rbdock.cxx#4 $)

>  <Rbt.Library>
libRbt.so (2013.1, Build901 2013/11/27)

>  <Rbt.Parameter_File>
/home/v/Downloads/rDock_2013.1_src/data/scripts/dock_solv.prm

>  <Rbt.Receptor>
/home/v/Desktop/r.prm

>  <SCORE>
7.49274

>  <SCORE.INTER>
8.4

>  <SCORE.INTER.CONST>
1

>  <SCORE.INTER.POLAR>
0

>  <SCORE.INTER.ROT>
3

>  <SCORE.INTER.SOLV>
0

>  <SCORE.INTER.VDW>
0

>  <SCORE.INTER.norm>
0.6

>  <SCORE.INTRA>
-0.907262

>  <SCORE.INTRA.DIHEDRAL>
-1.61142

>  <SCORE.INTRA.DIHEDRAL.0>
1.6411

>  <SCORE.INTRA.POLAR>
0

>  <SCORE.INTRA.POLAR.0>
0

>  <SCORE.INTRA.REPUL>
0

>  <SCORE.INTRA.REPUL.0>
0

>  <SCORE.INTRA.SOLV>
-0.29409

>  <SCORE.INTRA.SOLV.lig_0>
-16.0602

>  <SCORE.INTRA.VDW>
0.045494

>  <SCORE.INTRA.VDW.0>
-0.639572

>  <SCORE.INTRA.norm>
-0.0648044

>  <SCORE.RESTR>
0

>  <SCORE.RESTR.CAVITY>
0

>  <SCORE.RESTR.norm>
0

>  <SCORE.SYSTEM>
0

>  <SCORE.SYSTEM.CONST>
0

>  <SCORE.SYSTEM.DIHEDRAL>
0

>  <SCORE.SYSTEM.SOLV>
0

>  <SCORE.SYSTEM.norm>
0

>  <SCORE.heavy>
14

>  <SCORE.norm>
0.535196

$$$$
ligand.pdb
  rDOCK(R)          3D
libRbt.so/2013.1/901 2013/11/27
 14 14  0  0  0  0  0  0  0  0999 V2000
    8.8338   -8.5724  -13.7688 C   0  0  0  0  0  0
   16.7329   -7.6861  -13.3077 C   0  0  0  0  0  0
   10.0645   -8.8777  -12.9305 C   0  0  0  0  0  0
   11.3650   -8.4152  -13.5867 C   0  0  0  0  0  0
   13.7888   -8.4195  -13.1785 C   0  0  0  0  0  0
   16.1442   -8.4484  -12.3056 C   0  0  0  0  0  0
   16.9364   -8.9460  -11.2808 C   0  0  0  0  0  0
   18.2955   -8.6705  -11.2536 C   0  0  0  0  0  0
   18.8755   -7.9266  -12.2563 C   0  0  0  0  0  0
   18.0970   -7.4319  -13.2755 C   0  0  0  0  0  0
   12.5347   -8.7408  -12.7888 N   0  0  0  0  0  0
   14.7640   -8.7635  -12.2755 N   0  0  0  0  0  0
   14.0299   -7.8716  -14.2621 O   0  0  0  0  0  0
    9.9484   -8.2618  -11.6545 O   0  0  0  0  0  0
  2 10  2  0  0  0
  2  6  1  0  0  0
  3  4  1  0  0  0
  3  1  1  0  0  0
  4 11  1  0  0  0
  5 11  1  0  0  0
  5 12  1  0  0  0
  6  7  2  0  0  0
  7  8  1  0  0  0
  9  8  2  0  0  0
 10  9  1  0  0  0
 12  6  1  0  0  0
 13  5  2  0  0  0
 14  3  1  0  0  0
M  END
>  <CHROM.1>
-178.67687710,-179.77020812,0.89245289,14.15543313,-8.35610480,-12.74392787
-3.06484587,0.07855417,1.90883597

>  <Name>
ligand.pdb

>  <RI>
2.24188e+07

>  <Rbt.Current_Directory>
/home/v/Downloads/rDock_2013.1_src/bin

>  <Rbt.Executable>
rbdock ($Id: //depot/dev/client3/rdock/2013.1/src/exe/rbdock.cxx#4 $)

>  <Rbt.Library>
libRbt.so (2013.1, Build901 2013/11/27)

>  <Rbt.Parameter_File>
/home/v/Downloads/rDock_2013.1_src/data/scripts/dock_solv.prm

>  <Rbt.Receptor>
/home/v/Desktop/r.prm

>  <SCORE>
7.49217

>  <SCORE.INTER>
8.4

>  <SCORE.INTER.CONST>
1

>  <SCORE.INTER.POLAR>
0

>  <SCORE.INTER.ROT>
3

>  <SCORE.INTER.SOLV>
0

>  <SCORE.INTER.VDW>
0

>  <SCORE.INTER.norm>
0.6

>  <SCORE.INTRA>
-0.907827

>  <SCORE.INTRA.DIHEDRAL>
-1.6144

>  <SCORE.INTRA.DIHEDRAL.0>
1.6411

>  <SCORE.INTRA.POLAR>
0

>  <SCORE.INTRA.POLAR.0>
0

>  <SCORE.INTRA.REPUL>
0

>  <SCORE.INTRA.REPUL.0>
0

>  <SCORE.INTRA.SOLV>
-0.293156

>  <SCORE.INTRA.SOLV.lig_0>
-16.0602

>  <SCORE.INTRA.VDW>
0.0459507

>  <SCORE.INTRA.VDW.0>
-0.639572

>  <SCORE.INTRA.norm>
-0.0648448

>  <SCORE.RESTR>
0

>  <SCORE.RESTR.CAVITY>
0

>  <SCORE.RESTR.norm>
0

>  <SCORE.SYSTEM>
0

>  <SCORE.SYSTEM.CONST>
0

>  <SCORE.SYSTEM.DIHEDRAL>
0

>  <SCORE.SYSTEM.SOLV>
0

>  <SCORE.SYSTEM.norm>
0

>  <SCORE.heavy>
14

>  <SCORE.norm>
0.535155

$$$$
ligand.pdb
  rDOCK(R)          3D
libRbt.so/2013.1/901 2013/11/27
 14 14  0  0  0  0  0  0  0  0999 V2000
    9.5439  -12.9428   -8.4393 C   0  0  0  0  0  0
   17.4798  -12.3695   -8.1207 C   0  0  0  0  0  0
   10.7756  -12.4302   -9.1681 C   0  0  0  0  0  0
   12.0686  -12.6465   -8.3825 C   0  0  0  0  0  0
   14.4796  -12.2022   -8.5598 C   0  0  0  0  0  0
   16.8657  -11.7568   -9.2067 C   0  0  0  0  0  0
   17.6529  -11.1491  -10.1744 C   0  0  0  0  0  0
   19.0352  -11.1688  -10.0620 C   0  0  0  0  0  0
   19.6373  -11.7650   -8.9770 C   0  0  0  0  0  0
   18.8636  -12.3675   -8.0138 C   0  0  0  0  0  0
   13.2334  -12.1276   -9.0789 N   0  0  0  0  0  0
   15.4613  -11.7037   -9.3797 N   0  0  0  0  0  0
   14.7065  -12.6716   -7.4369 O   0  0  0  0  0  0
   10.8930  -13.0690  -10.4327 O   0  0  0  0  0  0
  2 10  2  0  0  0
  2  6  1  0  0  0
  3  4  1  0  0  0
  3  1  1  0  0  0
  4 11  1  0  0  0
  5 11  1  0  0  0
  5 12  1  0  0  0
  6  7  2  0  0  0
  7  8  1  0  0  0
  9  8  2  0  0  0
 10  9  1  0  0  0
 12  6  1  0  0  0
 13  5  2  0  0  0
 14  3  1  0  0  0
M  END
>  <CHROM.1>
-178.82801791,179.43070261,0.61877522,14.89198324,-12.20122515,-8.95375347
-3.09939914,-0.12582962,-1.26398561

>  <Name>
ligand.pdb

>  <RI>
2.24188e+07

>  <Rbt.Current_Directory>
/home/v/Downloads/rDock_2013.1_src/bin

>  <Rbt.Executable>
rbdock ($Id: //depot/dev/client3/rdock/2013.1/src/exe/rbdock.cxx#4 $)

>  <Rbt.Library>
libRbt.so (2013.1, Build901 2013/11/27)

>  <Rbt.Parameter_File>
/home/v/Downloads/rDock_2013.1_src/data/scripts/dock_solv.prm

>  <Rbt.Receptor>
/home/v/Desktop/r.prm

>  <SCORE>
7.49197

>  <SCORE.INTER>
8.4

>  <SCORE.INTER.CONST>
1

>  <SCORE.INTER.POLAR>
0

>  <SCORE.INTER.ROT>
3

>  <SCORE.INTER.SOLV>
0

>  <SCORE.INTER.VDW>
0

>  <SCORE.INTER.norm>
0.6

>  <SCORE.INTRA>
-0.908027

>  <SCORE.INTRA.DIHEDRAL>
-1.61681

>  <SCORE.INTRA.DIHEDRAL.0>
1.6411

>  <SCORE.INTRA.POLAR>
0

>  <SCORE.INTRA.POLAR.0>
0

>  <SCORE.INTRA.REPUL>
0

>  <SCORE.INTRA.REPUL.0>
0

>  <SCORE.INTRA.SOLV>
-0.293567

>  <SCORE.INTRA.SOLV.lig_0>
-16.0602

>  <SCORE.INTRA.VDW>
0.0471627

>  <SCORE.INTRA.VDW.0>
-0.639572

>  <SCORE.INTRA.norm>
-0.0648591

>  <SCORE.RESTR>
0

>  <SCORE.RESTR.CAVITY>
0

>  <SCORE.RESTR.norm>
0

>  <SCORE.SYSTEM>
0

>  <SCORE.SYSTEM.CONST>
0

>  <SCORE.SYSTEM.DIHEDRAL>
0

>  <SCORE.SYSTEM.SOLV>
0

>  <SCORE.SYSTEM.norm>
0

>  <SCORE.heavy>
14

>  <SCORE.norm>
0.535141

$$$$
ligand.pdb
  rDOCK(R)          3D
libRbt.so/2013.1/901 2013/11/27
 14 14  0  0  0  0  0  0  0  0999 V2000
   22.7641  -11.5044   -8.8254 C   0  0  0  0  0  0
   15.6358   -8.9698  -11.3137 C   0  0  0  0  0  0
   21.9654  -10.2812   -9.2456 C   0  0  0  0  0  0
   20.5405  -10.6187   -9.6834 C   0  0  0  0  0  0
   18.5271   -9.5169  -10.5631 C   0  0  0  0  0  0
   16.6368   -8.0081  -11.2419 C   0  0  0  0  0  0
   16.3296   -6.6886  -11.5420 C   0  0  0  0  0  0
   15.0349   -6.3370  -11.8941 C   0  0  0  0  0  0
   14.0509   -7.2961  -11.9770 C   0  0  0  0  0  0
   14.3485   -8.6054  -11.6827 C   0  0  0  0  0  0
   19.8027   -9.4459  -10.1205 N   0  0  0  0  0  0
   17.9760   -8.3022  -10.8879 N   0  0  0  0  0  0
   17.9188  -10.5895  -10.6730 O   0  0  0  0  0  0
   21.9090   -9.3465   -8.1759 O   0  0  0  0  0  0
  2 10  2  0  0  0
  2  6  1  0  0  0
  3  4  1  0  0  0
  3  1  1  0  0  0
  4 11  1  0  0  0
  5 11  1  0  0  0
  5 12  1  0  0  0
  6  7  2  0  0  0
  7  8  1  0  0  0
  9  8  2  0  0  0
 10  9  1  0  0  0
 12  6  1  0  0  0
 13  5  2  0  0  0
 14  3  1  0  0  0
M  END
>  <CHROM.1>
-178.24601619,179.31694650,-0.02966874,18.23494594,-9.03296921,-10.49655792
0.37787774,0.38813737,-3.12648880

>  <Name>
ligand.pdb

>  <RI>
2.24188e+07

>  <Rbt.Current_Directory>
/home/v/Downloads/rDock_2013.1_src/bin

>  <Rbt.Executable>
rbdock ($Id: //depot/dev/client3/rdock/2013.1/src/exe/rbdock.cxx#4 $)

>  <Rbt.Library>
libRbt.so (2013.1, Build901 2013/11/27)

>  <Rbt.Parameter_File>
/home/v/Downloads/rDock_2013.1_src/data/scripts/dock_solv.prm

>  <Rbt.Receptor>
/home/v/Desktop/r.prm

>  <SCORE>
7.49272

>  <SCORE.INTER>
8.4

>  <SCORE.INTER.CONST>
1

>  <SCORE.INTER.POLAR>
0

>  <SCORE.INTER.ROT>
3

>  <SCORE.INTER.SOLV>
0

>  <SCORE.INTER.VDW>
0

>  <SCORE.INTER.norm>
0.6

>  <SCORE.INTRA>
-0.907285

>  <SCORE.INTRA.DIHEDRAL>
-1.61166

>  <SCORE.INTRA.DIHEDRAL.0>
1.6411

>  <SCORE.INTRA.POLAR>
0

>  <SCORE.INTRA.POLAR.0>
0

>  <SCORE.INTRA.REPUL>
0

>  <SCORE.INTRA.REPUL.0>
0

>  <SCORE.INTRA.SOLV>
-0.296319

>  <SCORE.INTRA.SOLV.lig_0>
-16.0602

>  <SCORE.INTRA.VDW>
0.0467022

>  <SCORE.INTRA.VDW.0>
-0.639572

>  <SCORE.INTRA.norm>
-0.0648061

>  <SCORE.RESTR>
0

>  <SCORE.RESTR.CAVITY>
0

>  <SCORE.RESTR.norm>
0

>  <SCORE.SYSTEM>
0

>  <SCORE.SYSTEM.CONST>
0

>  <SCORE.SYSTEM.DIHEDRAL>
0

>  <SCORE.SYSTEM.SOLV>
0

>  <SCORE.SYSTEM.norm>
0

>  <SCORE.heavy>
14

>  <SCORE.norm>
0.535194

$$$$
ligand.pdb
  rDOCK(R)          3D
libRbt.so/2013.1/901 2013/11/27
 14 14  0  0  0  0  0  0  0  0999 V2000
    7.8599   -7.8990  -12.5541 C   0  0  0  0  0  0
   15.7084   -9.2342  -12.3873 C   0  0  0  0  0  0
    8.9295   -8.9489  -12.3004 C   0  0  0  0  0  0
   10.3451   -8.4362  -12.5631 C   0  0  0  0  0  0
   12.6743   -9.2197  -12.5130 C   0  0  0  0  0  0
   14.8951  -10.3357  -12.1481 C   0  0  0  0  0  0
   15.4813  -11.5543  -11.8371 C   0  0  0  0  0  0
   16.8616  -11.6626  -11.7527 C   0  0  0  0  0  0
   17.6624  -10.5716  -12.0043 C   0  0  0  0  0  0
   17.0885   -9.3617  -12.3146 C   0  0  0  0  0  0
   11.3540   -9.4590  -12.3468 N   0  0  0  0  0  0
   13.4815  -10.2901  -12.2172 N   0  0  0  0  0  0
   13.1093   -8.1301  -12.9079 O   0  0  0  0  0  0
    8.8489   -9.4103  -10.9581 O   0  0  0  0  0  0
  2 10  2  0  0  0
  2  6  1  0  0  0
  3  4  1  0  0  0
  3  1  1  0  0  0
  4 11  1  0  0  0
  5 11  1  0  0  0
  5 12  1  0  0  0
  6  7  2  0  0  0
  7  8  1  0  0  0
  9  8  2  0  0  0
 10  9  1  0  0  0
 12  6  1  0  0  0
 13  5  2  0  0  0
 14  3  1  0  0  0
M  END
>  <CHROM.1>
-178.65120313,-179.54932539,-0.10487227,13.01109035,-9.55873446,-12.19711888
-2.92079988,-0.09769589,2.70080193

>  <Name>
ligand.pdb

>  <RI>
2.24188e+07

>  <Rbt.Current_Directory>
/home/v/Downloads/rDock_2013.1_src/bin

>  <Rbt.Executable>
rbdock ($Id: //depot/dev/client3/rdock/2013.1/src/exe/rbdock.cxx#4 $)

>  <Rbt.Library>
libRbt.so (2013.1, Build901 2013/11/27)

>  <Rbt.Parameter_File>
/home/v/Downloads/rDock_2013.1_src/data/scripts/dock_solv.prm

>  <Rbt.Receptor>
/home/v/Desktop/r.prm

>  <SCORE>
7.49274

>  <SCORE.INTER>
8.4

>  <SCORE.INTER.CONST>
1

>  <SCORE.INTER.POLAR>
0

>  <SCORE.INTER.ROT>
3

>  <SCORE.INTER.SOLV>
0

>  <SCORE.INTER.VDW>
0

>  <SCORE.INTER.norm>
0.6

>  <SCORE.INTRA>
-0.907258

>  <SCORE.INTRA.DIHEDRAL>
-1.6168

>  <SCORE.INTRA.DIHEDRAL.0>
1.6411

>  <SCORE.INTRA.POLAR>
0

>  <SCORE.INTRA.POLAR.0>
0

>  <SCORE.INTRA.REPUL>
0

>  <SCORE.INTRA.REPUL.0>
0

>  <SCORE.INTRA.SOLV>
-0.292971

>  <SCORE.INTRA.SOLV.lig_0>
-16.0602

>  <SCORE.INTRA.VDW>
0.0476291

>  <SCORE.INTRA.VDW.0>
-0.639572

>  <SCORE.INTRA.norm>
-0.0648041

>  <SCORE.RESTR>
0

>  <SCORE.RESTR.CAVITY>
0

>  <SCORE.RESTR.norm>
0

>  <SCORE.SYSTEM>
0

>  <SCORE.SYSTEM.CONST>
0

>  <SCORE.SYSTEM.DIHEDRAL>
0

>  <SCORE.SYSTEM.SOLV>
0

>  <SCORE.SYSTEM.norm>
0

>  <SCORE.heavy>
14

>  <SCORE.norm>
0.535196

$$$$
ligand.pdb
  rDOCK(R)          3D
libRbt.so/2013.1/901 2013/11/27
 14 14  0  0  0  0  0  0  0  0999 V2000
   15.1172  -11.1120  -14.0828 C   0  0  0  0  0  0
   18.6410   -8.9255   -7.2848 C   0  0  0  0  0  0
   15.6532   -9.9278  -13.2947 C   0  0  0  0  0  0
   16.1804  -10.3174  -11.9141 C   0  0  0  0  0  0
   17.1460   -9.2841   -9.9038 C   0  0  0  0  0  0
   18.2856   -7.8955   -8.1478 C   0  0  0  0  0  0
   18.6028   -6.5883   -7.8073 C   0  0  0  0  0  0
   19.2793   -6.3199   -6.6264 C   0  0  0  0  0  0
   19.6162   -7.3428   -5.7690 C   0  0  0  0  0  0
   19.3037   -8.6401   -6.0992 C   0  0  0  0  0  0
   16.6594   -9.1716  -11.1601 N   0  0  0  0  0  0
   17.5962   -8.1035   -9.3670 N   0  0  0  0  0  0
   17.1707  -10.3606   -9.2929 O   0  0  0  0  0  0
   16.6953   -9.2911  -14.0225 O   0  0  0  0  0  0
  2 10  2  0  0  0
  2  6  1  0  0  0
  3  4  1  0  0  0
  3  1  1  0  0  0
  4 11  1  0  0  0
  5 11  1  0  0  0
  5 12  1  0  0  0
  6  7  2  0  0  0
  7  8  1  0  0  0
  9  8  2  0  0  0
 10  9  1  0  0  0
 12  6  1  0  0  0
 13  5  2  0  0  0
 14  3  1  0  0  0
M  END
>  <CHROM.1>
-178.60477584,178.75321187,1.12145818,17.50858943,-8.87036055,-9.76189526
2.83823954,-1.12811615,-0.71608966

>  <Name>
ligand.pdb

>  <RI>
2.24188e+07

>  <Rbt.Current_Directory>
/home/v/Downloads/rDock_2013.1_src/bin

>  <Rbt.Executable>
rbdock ($Id: //depot/dev/client3/rdock/2013.1/src/exe/rbdock.cxx#4 $)

>  <Rbt.Library>
libRbt.so (2013.1, Build901 2013/11/27)

>  <Rbt.Parameter_File>
/home/v/Downloads/rDock_2013.1_src/data/scripts/dock_solv.prm

>  <Rbt.Receptor>
/home/v/Desktop/r.prm

>  <SCORE>
7.49231

>  <SCORE.INTER>
8.4

>  <SCORE.INTER.CONST>
1

>  <SCORE.INTER.POLAR>
0

>  <SCORE.INTER.ROT>
3

>  <SCORE.INTER.SOLV>
0

>  <SCORE.INTER.VDW>
0

>  <SCORE.INTER.norm>
0.6

>  <SCORE.INTRA>
-0.907687

>  <SCORE.INTRA.DIHEDRAL>
-1.61121

>  <SCORE.INTRA.DIHEDRAL.0>
1.6411

>  <SCORE.INTRA.POLAR>
0

>  <SCORE.INTRA.POLAR.0>
0

>  <SCORE.INTRA.REPUL>
0

>  <SCORE.INTRA.REPUL.0>
0

>  <SCORE.INTRA.SOLV>
-0.295441

>  <SCORE.INTRA.SOLV.lig_0>
-16.0602

>  <SCORE.INTRA.VDW>
0.045639

>  <SCORE.INTRA.VDW.0>
-0.639572

>  <SCORE.INTRA.norm>
-0.0648348

>  <SCORE.RESTR>
0

>  <SCORE.RESTR.CAVITY>
0

>  <SCORE.RESTR.norm>
0

>  <SCORE.SYSTEM>
0

>  <SCORE.SYSTEM.CONST>
0

>  <SCORE.SYSTEM.DIHEDRAL>
0

>  <SCORE.SYSTEM.SOLV>
0

>  <SCORE.SYSTEM.norm>
0

>  <SCORE.heavy>
14

>  <SCORE.norm>
0.535165

$$$$
ligand.pdb
  rDOCK(R)          3D
libRbt.so/2013.1/901 2013/11/27
 14 14  0  0  0  0  0  0  0  0999 V2000
   20.5935   -8.4874   -4.9663 C   0  0  0  0  0  0
   19.9922  -13.6666  -10.9844 C   0  0  0  0  0  0
   21.1923   -8.9074   -6.2988 C   0  0  0  0  0  0
   20.5287  -10.1522   -6.8870 C   0  0  0  0  0  0
   20.6964  -11.6337   -8.8412 C   0  0  0  0  0  0
   21.0518  -12.7696  -11.0534 C   0  0  0  0  0  0
   21.8822  -12.7882  -12.1649 C   0  0  0  0  0  0
   21.6445  -13.6827  -13.1980 C   0  0  0  0  0  0
   20.6019  -14.5781  -13.1178 C   0  0  0  0  0  0
   19.7763  -14.5664  -12.0188 C   0  0  0  0  0  0
   21.1258  -10.5546   -8.1490 N   0  0  0  0  0  0
   21.3464  -11.8320  -10.0340 N   0  0  0  0  0  0
   19.8008  -12.3796   -8.4239 O   0  0  0  0  0  0
   21.0872   -7.8435   -7.2359 O   0  0  0  0  0  0
  2 10  2  0  0  0
  2  6  1  0  0  0
  3  4  1  0  0  0
  3  1  1  0  0  0
  4 11  1  0  0  0
  5 11  1  0  0  0
  5 12  1  0  0  0
  6  7  2  0  0  0
  7  8  1  0  0  0
  9  8  2  0  0  0
 10  9  1  0  0  0
 12  6  1  0  0  0
 13  5  2  0  0  0
 14  3  1  0  0  0
M  END
>  <CHROM.1>
-179.04479941,179.74277265,0.49022753,20.79719777,-11.60077451,-9.40282666
1.56479004,0.86688182,0.88104074

>  <Name>
ligand.pdb

>  <RI>
2.24188e+07

>  <Rbt.Current_Directory>
/home/v/Downloads/rDock_2013.1_src/bin

>  <Rbt.Executable>
rbdock ($Id: //depot/dev/client3/rdock/2013.1/src/exe/rbdock.cxx#4 $)

>  <Rbt.Library>
libRbt.so (2013.1, Build901 2013/11/27)

>  <Rbt.Parameter_File>
/home/v/Downloads/rDock_2013.1_src/data/scripts/dock_solv.prm

>  <Rbt.Receptor>
/home/v/Desktop/r.prm

>  <SCORE>
7.49221

>  <SCORE.INTER>
8.4

>  <SCORE.INTER.CONST>
1

>  <SCORE.INTER.POLAR>
0

>  <SCORE.INTER.ROT>
3

>  <SCORE.INTER.SOLV>
0

>  <SCORE.INTER.VDW>
0

>  <SCORE.INTER.norm>
0.6

>  <SCORE.INTRA>
-0.907795

>  <SCORE.INTRA.DIHEDRAL>
-1.6193

>  <SCORE.INTRA.DIHEDRAL.0>
1.6411

>  <SCORE.INTRA.POLAR>
0

>  <SCORE.INTRA.POLAR.0>
0

>  <SCORE.INTRA.REPUL>
0

>  <SCORE.INTRA.REPUL.0>
0

>  <SCORE.INTRA.SOLV>
-0.292189

>  <SCORE.INTRA.SOLV.lig_0>
-16.0602

>  <SCORE.INTRA.VDW>
0.047952

>  <SCORE.INTRA.VDW.0>
-0.639572

>  <SCORE.INTRA.norm>
-0.0648425

>  <SCORE.RESTR>
0

>  <SCORE.RESTR.CAVITY>
0

>  <SCORE.RESTR.norm>
0

>  <SCORE.SYSTEM>
0

>  <SCORE.SYSTEM.CONST>
0

>  <SCORE.SYSTEM.DIHEDRAL>
0

>  <SCORE.SYSTEM.SOLV>
0

>  <SCORE.SYSTEM.norm>
0

>  <SCORE.heavy>
14

>  <SCORE.norm>
0.535158

$$$$
ligand.pdb
  rDOCK(R)          3D
libRbt.so/2013.1/901 2013/11/27
 14 14  0  0  0  0  0  0  0  0999 V2000
   17.6272  -11.7441  -13.9008 C   0  0  0  0  0  0
   11.9173   -6.2119  -13.4639 C   0  0  0  0  0  0
   17.2173  -10.3527  -14.3552 C   0  0  0  0  0  0
   15.8173   -9.9584  -13.8858 C   0  0  0  0  0  0
   14.2258   -8.0932  -14.0586 C   0  0  0  0  0  0
   12.9847   -5.9232  -14.3061 C   0  0  0  0  0  0
   13.0201   -4.6985  -14.9575 C   0  0  0  0  0  0
   12.0080   -3.7719  -14.7554 C   0  0  0  0  0  0
   10.9463   -4.0688  -13.9309 C   0  0  0  0  0  0
   10.9039   -5.2808  -13.2838 C   0  0  0  0  0  0
   15.4240   -8.6425  -14.3596 N   0  0  0  0  0  0
   14.0483   -6.8249  -14.5530 N   0  0  0  0  0  0
   13.3643   -8.6927  -13.4021 O   0  0  0  0  0  0
   18.1501   -9.3913  -13.8790 O   0  0  0  0  0  0
  2 10  2  0  0  0
  2  6  1  0  0  0
  3  4  1  0  0  0
  3  1  1  0  0  0
  4 11  1  0  0  0
  5 11  1  0  0  0
  5 12  1  0  0  0
  6  7  2  0  0  0
  7  8  1  0  0  0
  9  8  2  0  0  0
 10  9  1  0  0  0
 12  6  1  0  0  0
 13  5  2  0  0  0
 14  3  1  0  0  0
M  END
>  <CHROM.1>
-178.33733630,-179.76728704,0.87659311,14.22703370,-7.52180703,-14.06425803
0.75216220,-0.31124035,2.80706404

>  <Name>
ligand.pdb

>  <RI>
2.24188e+07

>  <Rbt.Current_Directory>
/home/v/Downloads/rDock_2013.1_src/bin

>  <Rbt.Executable>
rbdock ($Id: //depot/dev/client3/rdock/2013.1/src/exe/rbdock.cxx#4 $)

>  <Rbt.Library>
libRbt.so (2013.1, Build901 2013/11/27)

>  <Rbt.Parameter_File>
/home/v/Downloads/rDock_2013.1_src/data/scripts/dock_solv.prm

>  <Rbt.Receptor>
/home/v/Desktop/r.prm

>  <SCORE>
7.49243

>  <SCORE.INTER>
8.4

>  <SCORE.INTER.CONST>
1

>  <SCORE.INTER.POLAR>
0

>  <SCORE.INTER.ROT>
3

>  <SCORE.INTER.SOLV>
0

>  <SCORE.INTER.VDW>
0

>  <SCORE.INTER.norm>
0.6

>  <SCORE.INTRA>
-0.907569

>  <SCORE.INTRA.DIHEDRAL>
-1.61055

>  <SCORE.INTRA.DIHEDRAL.0>
1.6411

>  <SCORE.INTRA.POLAR>
0

>  <SCORE.INTRA.POLAR.0>
0

>  <SCORE.INTRA.REPUL>
0

>  <SCORE.INTRA.REPUL.0>
0

>  <SCORE.INTRA.SOLV>
-0.29466

>  <SCORE.INTRA.SOLV.lig_0>
-16.0602

>  <SCORE.INTRA.VDW>
0.0450341

>  <SCORE.INTRA.VDW.0>
-0.639572

>  <SCORE.INTRA.norm>
-0.0648264

>  <SCORE.RESTR>
0

>  <SCORE.RESTR.CAVITY>
0

>  <SCORE.RESTR.norm>
0

>  <SCORE.SYSTEM>
0

>  <SCORE.SYSTEM.CONST>
0

>  <SCORE.SYSTEM.DIHEDRAL>
0

>  <SCORE.SYSTEM.SOLV>
0

>  <SCORE.SYSTEM.norm>
0

>  <SCORE.heavy>
14

>  <SCORE.norm>
0.535174

$$$$
ligand.pdb
  rDOCK(R)          3D
libRbt.so/2013.1/901 2013/11/27
 14 14  0  0  0  0  0  0  0  0999 V2000
   12.6326   -7.4659  -14.7670 C   0  0  0  0  0  0
   18.0096  -12.3211  -11.4621 C   0  0  0  0  0  0
   13.2265   -7.9382  -13.4498 C   0  0  0  0  0  0
   14.2609   -9.0496  -13.6245 C   0  0  0  0  0  0
   15.7306  -10.4869  -12.2769 C   0  0  0  0  0  0
   17.2051  -11.6087  -10.5804 C   0  0  0  0  0  0
   17.4230  -11.7323   -9.2157 C   0  0  0  0  0  0
   18.4418  -12.5463   -8.7432 C   0  0  0  0  0  0
   19.2263  -13.2603   -9.6206 C   0  0  0  0  0  0
   19.0150  -13.1439  -10.9739 C   0  0  0  0  0  0
   14.7950   -9.5140  -12.3556 N   0  0  0  0  0  0
   16.1509  -10.7610  -10.9991 N   0  0  0  0  0  0
   16.1587  -11.0817  -13.2746 O   0  0  0  0  0  0
   13.8339   -6.8466  -12.7713 O   0  0  0  0  0  0
  2 10  2  0  0  0
  2  6  1  0  0  0
  3  4  1  0  0  0
  3  1  1  0  0  0
  4 11  1  0  0  0
  5 11  1  0  0  0
  5 12  1  0  0  0
  6  7  2  0  0  0
  7  8  1  0  0  0
  9  8  2  0  0  0
 10  9  1  0  0  0
 12  6  1  0  0  0
 13  5  2  0  0  0
 14  3  1  0  0  0
M  END
>  <CHROM.1>
-178.55316470,-179.54495022,0.13602364,16.05730431,-10.45445439,-11.80778514
-2.86831772,-0.85362175,1.26487558

>  <Name>
ligand.pdb

>  <RI>
2.24188e+07

>  <Rbt.Current_Directory>
/home/v/Downloads/rDock_2013.1_src/bin

>  <Rbt.Executable>
rbdock ($Id: //depot/dev/client3/rdock/2013.1/src/exe/rbdock.cxx#4 $)

>  <Rbt.Library>
libRbt.so (2013.1, Build901 2013/11/27)

>  <Rbt.Parameter_File>
/home/v/Downloads/rDock_2013.1_src/data/scripts/dock_solv.prm

>  <Rbt.Receptor>
/home/v/Desktop/r.prm

>  <SCORE>
7.49256

>  <SCORE.INTER>
8.4

>  <SCORE.INTER.CONST>
1

>  <SCORE.INTER.POLAR>
0

>  <SCORE.INTER.ROT>
3

>  <SCORE.INTER.SOLV>
0

>  <SCORE.INTER.VDW>
0

>  <SCORE.INTER.norm>
0.6

>  <SCORE.INTRA>
-0.907437

>  <SCORE.INTRA.DIHEDRAL>
-1.61541

>  <SCORE.INTRA.DIHEDRAL.0>
1.6411

>  <SCORE.INTRA.POLAR>
0

>  <SCORE.INTRA.POLAR.0>
0

>  <SCORE.INTRA.REPUL>
0

>  <SCORE.INTRA.REPUL.0>
0

>  <SCORE.INTRA.SOLV>
-0.293392

>  <SCORE.INTRA.SOLV.lig_0>
-16.0602

>  <SCORE.INTRA.VDW>
0.0469659

>  <SCORE.INTRA.VDW.0>
-0.639572

>  <SCORE.INTRA.norm>
-0.0648169

>  <SCORE.RESTR>
0

>  <SCORE.RESTR.CAVITY>
0

>  <SCORE.RESTR.norm>
0

>  <SCORE.SYSTEM>
0

>  <SCORE.SYSTEM.CONST>
0

>  <SCORE.SYSTEM.DIHEDRAL>
0

>  <SCORE.SYSTEM.SOLV>
0

>  <SCORE.SYSTEM.norm>
0

>  <SCORE.heavy>
14

>  <SCORE.norm>
0.535183

$$$$
ligand.pdb
  rDOCK(R)          3D
libRbt.so/2013.1/901 2013/11/27
 14 14  0  0  0  0  0  0  0  0999 V2000
   14.2958  -11.1275  -10.9775 C   0  0  0  0  0  0
   12.2503   -3.4582  -11.6248 C   0  0  0  0  0  0
   13.7597   -9.9240  -10.2192 C   0  0  0  0  0  0
   13.6760   -8.6637  -11.0796 C   0  0  0  0  0  0
   13.0681   -6.2895  -10.8920 C   0  0  0  0  0  0
   12.1634   -4.0091  -10.3517 C   0  0  0  0  0  0
   11.6871   -3.2284   -9.3081 C   0  0  0  0  0  0
   11.2902   -1.9199   -9.5411 C   0  0  0  0  0  0
   11.3917   -1.3753  -10.8014 C   0  0  0  0  0  0
   11.8642   -2.1425  -11.8395 C   0  0  0  0  0  0
   13.1927   -7.5145  -10.3335 N   0  0  0  0  0  0
   12.5508   -5.3371  -10.0493 N   0  0  0  0  0  0
   13.4033   -6.0526  -12.0599 O   0  0  0  0  0  0
   12.4685  -10.2129   -9.6992 O   0  0  0  0  0  0
  2 10  2  0  0  0
  2  6  1  0  0  0
  3  4  1  0  0  0
  3  1  1  0  0  0
  4 11  1  0  0  0
  5 11  1  0  0  0
  5 12  1  0  0  0
  6  7  2  0  0  0
  7  8  1  0  0  0
  9  8  2  0  0  0
 10  9  1  0  0  0
 12  6  1  0  0  0
 13  5  2  0  0  0
 14  3  1  0  0  0
M  END
>  <CHROM.1>
-178.61239133,178.55857743,0.53488403,12.68171802,-5.96109826,-10.63643385
-1.03152300,1.08290215,-0.49628121

>  <Name>
ligand.pdb

>  <RI>
2.24188e+07

>  <Rbt.Current_Directory>
/home/v/Downloads/rDock_2013.1_src/bin

>  <Rbt.Executable>
rbdock ($Id: //depot/dev/client3/rdock/2013.1/src/exe/rbdock.cxx#4 $)

>  <Rbt.Library>
libRbt.so (2013.1, Build901 2013/11/27)

>  <Rbt.Parameter_File>
/home/v/Downloads/rDock_2013.1_src/data/scripts/dock_solv.prm

>  <Rbt.Receptor>
/home/v/Desktop/r.prm

>  <SCORE>
7.49235

>  <SCORE.INTER>
8.4

>  <SCORE.INTER.CONST>
1

>  <SCORE.INTER.POLAR>
0

>  <SCORE.INTER.ROT>
3

>  <SCORE.INTER.SOLV>
0

>  <SCORE.INTER.VDW>
0

>  <SCORE.INTER.norm>
0.6

>  <SCORE.INTRA>
-0.90765

>  <SCORE.INTRA.DIHEDRAL>
-1.6135

>  <SCORE.INTRA.DIHEDRAL.0>
1.6411

>  <SCORE.INTRA.POLAR>
0

>  <SCORE.INTRA.POLAR.0>
0

>  <SCORE.INTRA.REPUL>
0

>  <SCORE.INTRA.REPUL.0>
0

>  <SCORE.INTRA.SOLV>
-0.295643

>  <SCORE.INTRA.SOLV.lig_0>
-16.0602

>  <SCORE.INTRA.VDW>
0.0469222

>  <SCORE.INTRA.VDW.0>
-0.639572

>  <SCORE.INTRA.norm>
-0.0648321

>  <SCORE.RESTR>
0

>  <SCORE.RESTR.CAVITY>
0

>  <SCORE.RESTR.norm>
0

>  <SCORE.SYSTEM>
0

>  <SCORE.SYSTEM.CONST>
0

>  <SCORE.SYSTEM.DIHEDRAL>
0

>  <SCORE.SYSTEM.SOLV>
0

>  <SCORE.SYSTEM.norm>
0

>  <SCORE.heavy>
14

>  <SCORE.norm>
0.535168

$$$$
ligand.pdb
  rDOCK(R)          3D
libRbt.so/2013.1/901 2013/11/27
 14 14  0  0  0  0  0  0  0  0999 V2000
   22.5813  -11.6672   -6.7602 C   0  0  0  0  0  0
   17.1307   -8.0915  -11.3337 C   0  0  0  0  0  0
   22.2292  -10.3772   -7.4831 C   0  0  0  0  0  0
   20.9284  -10.4738   -8.2796 C   0  0  0  0  0  0
   19.5260   -9.1152   -9.7726 C   0  0  0  0  0  0
   18.2825   -7.3596  -11.0697 C   0  0  0  0  0  0
   18.3880   -6.0652  -11.5582 C   0  0  0  0  0  0
   17.3480   -5.5083  -12.2877 C   0  0  0  0  0  0
   16.2155   -6.2429  -12.5579 C   0  0  0  0  0  0
   16.1049   -7.5264  -12.0784 C   0  0  0  0  0  0
   20.6242   -9.2463   -8.9950 N   0  0  0  0  0  0
   19.3776   -7.8699  -10.3311 N   0  0  0  0  0  0
   18.7328  -10.0455   -9.9676 O   0  0  0  0  0  0
   22.1189   -9.3111   -6.5491 O   0  0  0  0  0  0
  2 10  2  0  0  0
  2  6  1  0  0  0
  3  4  1  0  0  0
  3  1  1  0  0  0
  4 11  1  0  0  0
  5 11  1  0  0  0
  5 12  1  0  0  0
  6  7  2  0  0  0
  7  8  1  0  0  0
  9  8  2  0  0  0
 10  9  1  0  0  0
 12  6  1  0  0  0
 13  5  2  0  0  0
 14  3  1  0  0  0
M  END
>  <CHROM.1>
-178.38470956,179.39682391,0.77116198,19.34803404,-8.57709992,-9.82809076
0.67304686,0.63550682,2.89438049

>  <Name>
ligand.pdb

>  <RI>
2.24188e+07

>  <Rbt.Current_Directory>
/home/v/Downloads/rDock_2013.1_src/bin

>  <Rbt.Executable>
rbdock ($Id: //depot/dev/client3/rdock/2013.1/src/exe/rbdock.cxx#4 $)

>  <Rbt.Library>
libRbt.so (2013.1, Build901 2013/11/27)

>  <Rbt.Parameter_File>
/home/v/Downloads/rDock_2013.1_src/data/scripts/dock_solv.prm

>  <Rbt.Receptor>
/home/v/Desktop/r.prm

>  <SCORE>
7.49214

>  <SCORE.INTER>
8.4

>  <SCORE.INTER.CONST>
1

>  <SCORE.INTER.POLAR>
0

>  <SCORE.INTER.ROT>
3

>  <SCORE.INTER.SOLV>
0

>  <SCORE.INTER.VDW>
0

>  <SCORE.INTER.norm>
0.6

>  <SCORE.INTRA>
-0.907858

>  <SCORE.INTRA.DIHEDRAL>
-1.61136

>  <SCORE.INTRA.DIHEDRAL.0>
1.6411

>  <SCORE.INTRA.POLAR>
0

>  <SCORE.INTRA.POLAR.0>
0

>  <SCORE.INTRA.REPUL>
0

>  <SCORE.INTRA.REPUL.0>
0

>  <SCORE.INTRA.SOLV>
-0.295585

>  <SCORE.INTRA.SOLV.lig_0>
-16.0602

>  <SCORE.INTRA.VDW>
0.0456154

>  <SCORE.INTRA.VDW.0>
-0.639572

>  <SCORE.INTRA.norm>
-0.064847

>  <SCORE.RESTR>
0

>  <SCORE.RESTR.CAVITY>
0

>  <SCORE.RESTR.norm>
0

>  <SCORE.SYSTEM>
0

>  <SCORE.SYSTEM.CONST>
0

>  <SCORE.SYSTEM.DIHEDRAL>
0

>  <SCORE.SYSTEM.SOLV>
0

>  <SCORE.SYSTEM.norm>
0

>  <SCORE.heavy>
14

>  <SCORE.norm>
0.535153

$$$$
ligand.pdb
  rDOCK(R)          3D
libRbt.so/2013.1/901 2013/11/27
 14 14  0  0  0  0  0  0  0  0999 V2000
    8.5290   -4.0618  -14.6862 C   0  0  0  0  0  0
   14.3170   -8.3816  -11.3337 C   0  0  0  0  0  0
   10.0301   -4.1586  -14.4668 C   0  0  0  0  0  0
   10.4298   -5.3347  -13.5765 C   0  0  0  0  0  0
   12.4351   -6.3529  -12.5846 C   0  0  0  0  0  0
   14.7117   -7.1908  -11.9321 C   0  0  0  0  0  0
   16.0595   -6.8622  -11.9600 C   0  0  0  0  0  0
   16.9983   -7.7220  -11.4092 C   0  0  0  0  0  0
   16.6002   -8.8934  -10.8055 C   0  0  0  0  0  0
   15.2664   -9.2244  -10.7728 C   0  0  0  0  0  0
   11.8624   -5.3893  -13.3406 N   0  0  0  0  0  0
   13.8037   -6.2722  -12.5125 N   0  0  0  0  0  0
   11.7748   -7.2233  -12.0025 O   0  0  0  0  0  0
   10.6971   -4.2798  -15.7164 O   0  0  0  0  0  0
  2 10  2  0  0  0
  2  6  1  0  0  0
  3  4  1  0  0  0
  3  1  1  0  0  0
  4 11  1  0  0  0
  5 11  1  0  0  0
  5 12  1  0  0  0
  6  7  2  0  0  0
  7  8  1  0  0  0
  9  8  2  0  0  0
 10  9  1  0  0  0
 12  6  1  0  0  0
 13  5  2  0  0  0
 14  3  1  0  0  0
M  END
>  <CHROM.1>
-178.14502372,-179.70214728,0.88396748,12.97969572,-6.45865097,-12.72100795
2.44462569,-0.00329710,-0.72561627

>  <Name>
ligand.pdb

>  <RI>
2.24188e+07

>  <Rbt.Current_Directory>
/home/v/Downloads/rDock_2013.1_src/bin

>  <Rbt.Executable>
rbdock ($Id: //depot/dev/client3/rdock/2013.1/src/exe/rbdock.cxx#4 $)

>  <Rbt.Library>
libRbt.so (2013.1, Build901 2013/11/27)

>  <Rbt.Parameter_File>
/home/v/Downloads/rDock_2013.1_src/data/scripts/dock_solv.prm

>  <Rbt.Receptor>
/home/v/Desktop/r.prm

>  <SCORE>
7.49281

>  <SCORE.INTER>
8.4

>  <SCORE.INTER.CONST>
1

>  <SCORE.INTER.POLAR>
0

>  <SCORE.INTER.ROT>
3

>  <SCORE.INTER.SOLV>
0

>  <SCORE.INTER.VDW>
0

>  <SCORE.INTER.norm>
0.6

>  <SCORE.INTRA>
-0.907185

>  <SCORE.INTRA.DIHEDRAL>
-1.60789

>  <SCORE.INTRA.DIHEDRAL.0>
1.6411

>  <SCORE.INTRA.POLAR>
0

>  <SCORE.INTRA.POLAR.0>
0

>  <SCORE.INTRA.REPUL>
0

>  <SCORE.INTRA.REPUL.0>
0

>  <SCORE.INTRA.SOLV>
-0.295423

>  <SCORE.INTRA.SOLV.lig_0>
-16.0602

>  <SCORE.INTRA.VDW>
0.044473

>  <SCORE.INTRA.VDW.0>
-0.639572

>  <SCORE.INTRA.norm>
-0.0647989

>  <SCORE.RESTR>
0

>  <SCORE.RESTR.CAVITY>
0

>  <SCORE.RESTR.norm>
0

>  <SCORE.SYSTEM>
0

>  <SCORE.SYSTEM.CONST>
0

>  <SCORE.SYSTEM.DIHEDRAL>
0

>  <SCORE.SYSTEM.SOLV>
0

>  <SCORE.SYSTEM.norm>
0

>  <SCORE.heavy>
14

>  <SCORE.norm>
0.535201

$$$$
ligand.pdb
  rDOCK(R)          3D
libRbt.so/2013.1/901 2013/11/27
 14 14  0  0  0  0  0  0  0  0999 V2000
   11.2803   -3.0403  -12.2742 C   0  0  0  0  0  0
   16.0535   -5.9155   -6.5867 C   0  0  0  0  0  0
   11.3172   -3.8137  -10.9661 C   0  0  0  0  0  0
   12.7369   -4.0629  -10.4583 C   0  0  0  0  0  0
   13.9093   -5.1729   -8.6049 C   0  0  0  0  0  0
   14.7058   -6.2360   -6.4728 C   0  0  0  0  0  0
   14.2757   -6.9706   -5.3770 C   0  0  0  0  0  0
   15.1811   -7.3648   -4.4030 C   0  0  0  0  0  0
   16.5169   -7.0566   -4.5283 C   0  0  0  0  0  0
   16.9503   -6.3305   -5.6120 C   0  0  0  0  0  0
   12.7579   -4.8358   -9.2282 N   0  0  0  0  0  0
   13.7325   -5.8624   -7.4310 N   0  0  0  0  0  0
   15.0233   -4.8897   -9.0647 O   0  0  0  0  0  0
   10.5871   -3.1139   -9.9669 O   0  0  0  0  0  0
  2 10  2  0  0  0
  2  6  1  0  0  0
  3  4  1  0  0  0
  3  1  1  0  0  0
  4 11  1  0  0  0
  5 11  1  0  0  0
  5 12  1  0  0  0
  6  7  2  0  0  0
  7  8  1  0  0  0
  9  8  2  0  0  0
 10  9  1  0  0  0
 12  6  1  0  0  0
 13  5  2  0  0  0
 14  3  1  0  0  0
M  END
>  <CHROM.1>
-178.34311848,179.91546885,1.20564791,13.85018103,-5.25711438,-8.04371284
-2.15336585,-0.07970415,2.03874431

>  <Name>
ligand.pdb

>  <RI>
2.24188e+07

>  <Rbt.Current_Directory>
/home/v/Downloads/rDock_2013.1_src/bin

>  <Rbt.Executable>
rbdock ($Id: //depot/dev/client3/rdock/2013.1/src/exe/rbdock.cxx#4 $)

>  <Rbt.Library>
libRbt.so (2013.1, Build901 2013/11/27)

>  <Rbt.Parameter_File>
/home/v/Downloads/rDock_2013.1_src/data/scripts/dock_solv.prm

>  <Rbt.Receptor>
/home/v/Desktop/r.prm

>  <SCORE>
7.49242

>  <SCORE.INTER>
8.4

>  <SCORE.INTER.CONST>
1

>  <SCORE.INTER.POLAR>
0

>  <SCORE.INTER.ROT>
3

>  <SCORE.INTER.SOLV>
0

>  <SCORE.INTER.VDW>
0

>  <SCORE.INTER.norm>
0.6

>  <SCORE.INTRA>
-0.907576

>  <SCORE.INTRA.DIHEDRAL>
-1.60891

>  <SCORE.INTRA.DIHEDRAL.0>
1.6411

>  <SCORE.INTRA.POLAR>
0

>  <SCORE.INTRA.POLAR.0>
0

>  <SCORE.INTRA.REPUL>
0

>  <SCORE.INTRA.REPUL.0>
0

>  <SCORE.INTRA.SOLV>
-0.295081

>  <SCORE.INTRA.SOLV.lig_0>
-16.0602

>  <SCORE.INTRA.VDW>
0.0444182

>  <SCORE.INTRA.VDW.0>
-0.639572

>  <SCORE.INTRA.norm>
-0.0648269

>  <SCORE.RESTR>
0

>  <SCORE.RESTR.CAVITY>
0

>  <SCORE.RESTR.norm>
0

>  <SCORE.SYSTEM>
0

>  <SCORE.SYSTEM.CONST>
0

>  <SCORE.SYSTEM.DIHEDRAL>
0

>  <SCORE.SYSTEM.SOLV>
0

>  <SCORE.SYSTEM.norm>
0

>  <SCORE.heavy>
14

>  <SCORE.norm>
0.535173

$$$$
ligand.pdb
  rDOCK(R)          3D
libRbt.so/2013.1/901 2013/11/27
 14 14  0  0  0  0  0  0  0  0999 V2000
   18.0165  -10.9794  -12.1335 C   0  0  0  0  0  0
   13.9319   -4.5917   -9.7020 C   0  0  0  0  0  0
   18.0293   -9.7933  -11.1828 C   0  0  0  0  0  0
   16.8149   -8.8805  -11.3489 C   0  0  0  0  0  0
   15.8929   -6.7865  -10.4507 C   0  0  0  0  0  0
   15.1939   -4.7583   -9.1437 C   0  0  0  0  0  0
   15.6349   -3.8547   -8.1875 C   0  0  0  0  0  0
   14.8169   -2.8087   -7.7869 C   0  0  0  0  0  0
   13.5736   -2.6406   -8.3536 C   0  0  0  0  0  0
   13.1308   -3.5311   -9.3025 C   0  0  0  0  0  0
   16.8568   -7.7346  -10.4568 N   0  0  0  0  0  0
   16.0752   -5.8049   -9.5085 N   0  0  0  0  0  0
   14.9369   -6.8035  -11.2371 O   0  0  0  0  0  0
   18.0817  -10.2494   -9.8373 O   0  0  0  0  0  0
  2 10  2  0  0  0
  2  6  1  0  0  0
  3  4  1  0  0  0
  3  1  1  0  0  0
  4 11  1  0  0  0
  5 11  1  0  0  0
  5 12  1  0  0  0
  6  7  2  0  0  0
  7  8  1  0  0  0
  9  8  2  0  0  0
 10  9  1  0  0  0
 12  6  1  0  0  0
 13  5  2  0  0  0
 14  3  1  0  0  0
M  END
>  <CHROM.1>
-178.60940560,178.93834698,1.73638162,15.84586862,-6.51203103,-9.95515981
0.97836759,0.64292945,-2.39068875

>  <Name>
ligand.pdb

>  <RI>
2.24188e+07

>  <Rbt.Current_Directory>
/home/v/Downloads/rDock_2013.1_src/bin

>  <Rbt.Executable>
rbdock ($Id: //depot/dev/client3/rdock/2013.1/src/exe/rbdock.cxx#4 $)

>  <Rbt.Library>
libRbt.so (2013.1, Build901 2013/11/27)

>  <Rbt.Parameter_File>
/home/v/Downloads/rDock_2013.1_src/data/scripts/dock_solv.prm

>  <Rbt.Receptor>
/home/v/Desktop/r.prm

>  <SCORE>
7.49281

>  <SCORE.INTER>
8.4

>  <SCORE.INTER.CONST>
1

>  <SCORE.INTER.POLAR>
0

>  <SCORE.INTER.ROT>
3

>  <SCORE.INTER.SOLV>
0

>  <SCORE.INTER.VDW>
0

>  <SCORE.INTER.norm>
0.6

>  <SCORE.INTRA>
-0.907192

>  <SCORE.INTRA.DIHEDRAL>
-1.60741

>  <SCORE.INTRA.DIHEDRAL.0>
1.6411

>  <SCORE.INTRA.POLAR>
0

>  <SCORE.INTRA.POLAR.0>
0

>  <SCORE.INTRA.REPUL>
0

>  <SCORE.INTRA.REPUL.0>
0

>  <SCORE.INTRA.SOLV>
-0.295214

>  <SCORE.INTRA.SOLV.lig_0>
-16.0602

>  <SCORE.INTRA.VDW>
0.0441198

>  <SCORE.INTRA.VDW.0>
-0.639572

>  <SCORE.INTRA.norm>
-0.0647995

>  <SCORE.RESTR>
0

>  <SCORE.RESTR.CAVITY>
0

>  <SCORE.RESTR.norm>
0

>  <SCORE.SYSTEM>
0

>  <SCORE.SYSTEM.CONST>
0

>  <SCORE.SYSTEM.DIHEDRAL>
0

>  <SCORE.SYSTEM.SOLV>
0

>  <SCORE.SYSTEM.norm>
0

>  <SCORE.heavy>
14

>  <SCORE.norm>
0.535201

$$$$
ligand.pdb
  rDOCK(R)          3D
libRbt.so/2013.1/901 2013/11/27
 14 14  0  0  0  0  0  0  0  0999 V2000
   21.4744  -15.8032  -11.7631 C   0  0  0  0  0  0
   17.2990  -10.7535   -7.2393 C   0  0  0  0  0  0
   21.4187  -15.1142  -10.4093 C   0  0  0  0  0  0
   20.2452  -14.1436  -10.2800 C   0  0  0  0  0  0
   19.2809  -12.5542   -8.6720 C   0  0  0  0  0  0
   18.4994  -11.2044   -6.7028 C   0  0  0  0  0  0
   18.8646  -10.7987   -5.4271 C   0  0  0  0  0  0
   18.0314   -9.9656   -4.6951 C   0  0  0  0  0  0
   16.8504   -9.5111   -5.2371 C   0  0  0  0  0  0
   16.4832   -9.9076   -6.5010 C   0  0  0  0  0  0
   20.2242  -13.4677   -8.9940 N   0  0  0  0  0  0
   19.3921  -12.0562   -7.3975 N   0  0  0  0  0  0
   18.4022  -12.1954   -9.4668 O   0  0  0  0  0  0
   21.3301  -16.0840   -9.3736 O   0  0  0  0  0  0
  2 10  2  0  0  0
  2  6  1  0  0  0
  3  4  1  0  0  0
  3  1  1  0  0  0
  4 11  1  0  0  0
  5 11  1  0  0  0
  5 12  1  0  0  0
  6  7  2  0  0  0
  7  8  1  0  0  0
  9  8  2  0  0  0
 10  9  1  0  0  0
 12  6  1  0  0  0
 13  5  2  0  0  0
 14  3  1  0  0  0
M  END
>  <CHROM.1>
-178.54235809,179.21062561,1.64518750,19.19144109,-12.50578480,-8.11209793
0.91039125,0.72434110,-1.92239055

>  <Name>
ligand.pdb

>  <RI>
2.24188e+07

>  <Rbt.Current_Directory>
/home/v/Downloads/rDock_2013.1_src/bin

>  <Rbt.Executable>
rbdock ($Id: //depot/dev/client3/rdock/2013.1/src/exe/rbdock.cxx#4 $)

>  <Rbt.Library>
libRbt.so (2013.1, Build901 2013/11/27)

>  <Rbt.Parameter_File>
/home/v/Downloads/rDock_2013.1_src/data/scripts/dock_solv.prm

>  <Rbt.Receptor>
/home/v/Desktop/r.prm

>  <SCORE>
7.49262

>  <SCORE.INTER>
8.4

>  <SCORE.INTER.CONST>
1

>  <SCORE.INTER.POLAR>
0

>  <SCORE.INTER.ROT>
3

>  <SCORE.INTER.SOLV>
0

>  <SCORE.INTER.VDW>
0

>  <SCORE.INTER.norm>
0.6

>  <SCORE.INTRA>
-0.907379

>  <SCORE.INTRA.DIHEDRAL>
-1.6078

>  <SCORE.INTRA.DIHEDRAL.0>
1.6411

>  <SCORE.INTRA.POLAR>
0

>  <SCORE.INTRA.POLAR.0>
0

>  <SCORE.INTRA.REPUL>
0

>  <SCORE.INTRA.REPUL.0>
0

>  <SCORE.INTRA.SOLV>
-0.295156

>  <SCORE.INTRA.SOLV.lig_0>
-16.0602

>  <SCORE.INTRA.VDW>
0.0440982

>  <SCORE.INTRA.VDW.0>
-0.639572

>  <SCORE.INTRA.norm>
-0.0648128

>  <SCORE.RESTR>
0

>  <SCORE.RESTR.CAVITY>
0

>  <SCORE.RESTR.norm>
0

>  <SCORE.SYSTEM>
0

>  <SCORE.SYSTEM.CONST>
0

>  <SCORE.SYSTEM.DIHEDRAL>
0

>  <SCORE.SYSTEM.SOLV>
0

>  <SCORE.SYSTEM.norm>
0

>  <SCORE.heavy>
14

>  <SCORE.norm>
0.535187

$$$$
ligand.pdb
  rDOCK(R)          3D
libRbt.so/2013.1/901 2013/11/27
 14 14  0  0  0  0  0  0  0  0999 V2000
   21.1907  -13.9664  -13.8516 C   0  0  0  0  0  0
   16.4479   -9.3470   -9.4311 C   0  0  0  0  0  0
   21.1182  -12.6727  -13.0567 C   0  0  0  0  0  0
   19.7186  -12.3797  -12.5174 C   0  0  0  0  0  0
   18.5208  -10.6819  -11.2041 C   0  0  0  0  0  0
   17.7222   -8.8511   -9.6807 C   0  0  0  0  0  0
   18.1011   -7.6433   -9.1124 C   0  0  0  0  0  0
   17.2205   -6.9511   -8.2942 C   0  0  0  0  0  0
   15.9549   -7.4402   -8.0618 C   0  0  0  0  0  0
   15.5722   -8.6353   -8.6230 C   0  0  0  0  0  0
   19.6604  -11.1315  -11.7760 N   0  0  0  0  0  0
   18.6668   -9.5097  -10.5046 N   0  0  0  0  0  0
   17.4405  -11.2762  -11.3149 O   0  0  0  0  0  0
   22.0306  -12.7197  -11.9675 O   0  0  0  0  0  0
  2 10  2  0  0  0
  2  6  1  0  0  0
  3  4  1  0  0  0
  3  1  1  0  0  0
  4 11  1  0  0  0
  5 11  1  0  0  0
  5 12  1  0  0  0
  6  7  2  0  0  0
  7  8  1  0  0  0
  9  8  2  0  0  0
 10  9  1  0  0  0
 12  6  1  0  0  0
 13  5  2  0  0  0
 14  3  1  0  0  0
M  END
>  <CHROM.1>
-179.19759117,-179.57602224,1.43304160,18.60904188,-10.34069934,-10.75190471
0.97944750,-0.11323074,-2.52039013

>  <Name>
ligand.pdb

>  <RI>
2.24188e+07

>  <Rbt.Current_Directory>
/home/v/Downloads/rDock_2013.1_src/bin

>  <Rbt.Executable>
rbdock ($Id: //depot/dev/client3/rdock/2013.1/src/exe/rbdock.cxx#4 $)

>  <Rbt.Library>
libRbt.so (2013.1, Build901 2013/11/27)

>  <Rbt.Parameter_File>
/home/v/Downloads/rDock_2013.1_src/data/scripts/dock_solv.prm

>  <Rbt.Receptor>
/home/v/Desktop/r.prm

>  <SCORE>
7.49309

>  <SCORE.INTER>
8.4

>  <SCORE.INTER.CONST>
1

>  <SCORE.INTER.POLAR>
0

>  <SCORE.INTER.ROT>
3

>  <SCORE.INTER.SOLV>
0

>  <SCORE.INTER.VDW>
0

>  <SCORE.INTER.norm>
0.6

>  <SCORE.INTRA>
-0.906914

>  <SCORE.INTRA.DIHEDRAL>
-1.61558

>  <SCORE.INTRA.DIHEDRAL.0>
1.6411

>  <SCORE.INTRA.POLAR>
0

>  <SCORE.INTRA.POLAR.0>
0

>  <SCORE.INTRA.REPUL>
0

>  <SCORE.INTRA.REPUL.0>
0

>  <SCORE.INTRA.SOLV>
-0.290592

>  <SCORE.INTRA.SOLV.lig_0>
-16.0602

>  <SCORE.INTRA.VDW>
0.0461703

>  <SCORE.INTRA.VDW.0>
-0.639572

>  <SCORE.INTRA.norm>
-0.0647796

>  <SCORE.RESTR>
0

>  <SCORE.RESTR.CAVITY>
0

>  <SCORE.RESTR.norm>
0

>  <SCORE.SYSTEM>
0

>  <SCORE.SYSTEM.CONST>
0

>  <SCORE.SYSTEM.DIHEDRAL>
0

>  <SCORE.SYSTEM.SOLV>
0

>  <SCORE.SYSTEM.norm>
0

>  <SCORE.heavy>
14

>  <SCORE.norm>
0.53522

$$$$
ligand.pdb
  rDOCK(R)          3D
libRbt.so/2013.1/901 2013/11/27
 14 14  0  0  0  0  0  0  0  0999 V2000
   14.5121  -12.5782  -13.1035 C   0  0  0  0  0  0
   14.1324   -4.8733  -11.1278 C   0  0  0  0  0  0
   15.0548  -11.1938  -13.4192 C   0  0  0  0  0  0
   14.3953  -10.0901  -12.5929 C   0  0  0  0  0  0
   14.4552   -7.6482  -12.3185 C   0  0  0  0  0  0
   14.9588   -5.1900  -12.1996 C   0  0  0  0  0  0
   15.6963   -4.1829  -12.8054 C   0  0  0  0  0  0
   15.6175   -2.8809  -12.3338 C   0  0  0  0  0  0
   14.7866   -2.5707  -11.2809 C   0  0  0  0  0  0
   14.0518   -3.5632  -10.6770 C   0  0  0  0  0  0
   14.9035   -8.7702  -12.9253 N   0  0  0  0  0  0
   15.0843   -6.4983  -12.7266 N   0  0  0  0  0  0
   13.5483   -7.6635  -11.4760 O   0  0  0  0  0  0
   16.4584  -11.1595  -13.1960 O   0  0  0  0  0  0
  2 10  2  0  0  0
  2  6  1  0  0  0
  3  4  1  0  0  0
  3  1  1  0  0  0
  4 11  1  0  0  0
  5 11  1  0  0  0
  5 12  1  0  0  0
  6  7  2  0  0  0
  7  8  1  0  0  0
  9  8  2  0  0  0
 10  9  1  0  0  0
 12  6  1  0  0  0
 13  5  2  0  0  0
 14  3  1  0  0  0
M  END
>  <CHROM.1>
-178.77784908,179.75643970,0.19240985,14.83515019,-7.22171071,-12.31583026
1.53851631,-0.62775852,-2.97995918

>  <Name>
ligand.pdb

>  <RI>
2.24188e+07

>  <Rbt.Current_Directory>
/home/v/Downloads/rDock_2013.1_src/bin

>  <Rbt.Executable>
rbdock ($Id: //depot/dev/client3/rdock/2013.1/src/exe/rbdock.cxx#4 $)

>  <Rbt.Library>
libRbt.so (2013.1, Build901 2013/11/27)

>  <Rbt.Parameter_File>
/home/v/Downloads/rDock_2013.1_src/data/scripts/dock_solv.prm

>  <Rbt.Receptor>
/home/v/Desktop/r.prm

>  <SCORE>
7.49215

>  <SCORE.INTER>
8.4

>  <SCORE.INTER.CONST>
1

>  <SCORE.INTER.POLAR>
0

>  <SCORE.INTER.ROT>
3

>  <SCORE.INTER.SOLV>
0

>  <SCORE.INTER.VDW>
0

>  <SCORE.INTER.norm>
0.6

>  <SCORE.INTRA>
-0.907854

>  <SCORE.INTRA.DIHEDRAL>
-1.61777

>  <SCORE.INTRA.DIHEDRAL.0>
1.6411

>  <SCORE.INTRA.POLAR>
0

>  <SCORE.INTRA.POLAR.0>
0

>  <SCORE.INTRA.REPUL>
0

>  <SCORE.INTRA.REPUL.0>
0

>  <SCORE.INTRA.SOLV>
-0.29336

>  <SCORE.INTRA.SOLV.lig_0>
-16.0602

>  <SCORE.INTRA.VDW>
0.047711

>  <SCORE.INTRA.VDW.0>
-0.639572

>  <SCORE.INTRA.norm>
-0.0648467

>  <SCORE.RESTR>
0

>  <SCORE.RESTR.CAVITY>
0

>  <SCORE.RESTR.norm>
0

>  <SCORE.SYSTEM>
0

>  <SCORE.SYSTEM.CONST>
0

>  <SCORE.SYSTEM.DIHEDRAL>
0

>  <SCORE.SYSTEM.SOLV>
0

>  <SCORE.SYSTEM.norm>
0

>  <SCORE.heavy>
14

>  <SCORE.norm>
0.535153

$$$$
ligand.pdb
  rDOCK(R)          3D
libRbt.so/2013.1/901 2013/11/27
 14 14  0  0  0  0  0  0  0  0999 V2000
   13.8980   -5.7412   -6.6438 C   0  0  0  0  0  0
   20.7667   -9.3239   -8.4896 C   0  0  0  0  0  0
   14.7447   -6.2744   -7.7881 C   0  0  0  0  0  0
   16.0973   -6.8175   -7.3287 C   0  0  0  0  0  0
   18.1476   -7.8043   -8.2585 C   0  0  0  0  0  0
   19.9619   -8.9543   -9.5609 C   0  0  0  0  0  0
   20.3618   -9.2767  -10.8499 C   0  0  0  0  0  0
   21.5434   -9.9723  -11.0598 C   0  0  0  0  0  0
   22.3432  -10.3234   -9.9959 C   0  0  0  0  0  0
   21.9540  -10.0057   -8.7164 C   0  0  0  0  0  0
   16.9092   -7.2918   -8.4364 N   0  0  0  0  0  0
   18.7452   -8.2452   -9.4131 N   0  0  0  0  0  0
   18.6930   -7.8585   -7.1484 O   0  0  0  0  0  0
   14.0435   -7.3045   -8.4725 O   0  0  0  0  0  0
  2 10  2  0  0  0
  2  6  1  0  0  0
  3  4  1  0  0  0
  3  1  1  0  0  0
  4 11  1  0  0  0
  5 11  1  0  0  0
  5 12  1  0  0  0
  6  7  2  0  0  0
  7  8  1  0  0  0
  9  8  2  0  0  0
 10  9  1  0  0  0
 12  6  1  0  0  0
 13  5  2  0  0  0
 14  3  1  0  0  0
M  END
>  <CHROM.1>
-178.51499476,179.50712588,0.02424702,18.30571281,-8.16796174,-8.66810835
-2.72892450,0.35692321,-1.84843389

>  <Name>
ligand.pdb

>  <RI>
2.24188e+07

>  <Rbt.Current_Directory>
/home/v/Downloads/rDock_2013.1_src/bin

>  <Rbt.Executable>
rbdock ($Id: //depot/dev/client3/rdock/2013.1/src/exe/rbdock.cxx#4 $)

>  <Rbt.Library>
libRbt.so (2013.1, Build901 2013/11/27)

>  <Rbt.Parameter_File>
/home/v/Downloads/rDock_2013.1_src/data/scripts/dock_solv.prm

>  <Rbt.Receptor>
/home/v/Desktop/r.prm

>  <SCORE>
7.49232

>  <SCORE.INTER>
8.4

>  <SCORE.INTER.CONST>
1

>  <SCORE.INTER.POLAR>
0

>  <SCORE.INTER.ROT>
3

>  <SCORE.INTER.SOLV>
0

>  <SCORE.INTER.VDW>
0

>  <SCORE.INTER.norm>
0.6

>  <SCORE.INTRA>
-0.907684

>  <SCORE.INTRA.DIHEDRAL>
-1.61513

>  <SCORE.INTRA.DIHEDRAL.0>
1.6411

>  <SCORE.INTRA.POLAR>
0

>  <SCORE.INTRA.POLAR.0>
0

>  <SCORE.INTRA.REPUL>
0

>  <SCORE.INTRA.REPUL.0>
0

>  <SCORE.INTRA.SOLV>
-0.294867

>  <SCORE.INTRA.SOLV.lig_0>
-16.0602

>  <SCORE.INTRA.VDW>
0.0473131

>  <SCORE.INTRA.VDW.0>
-0.639572

>  <SCORE.INTRA.norm>
-0.0648346

>  <SCORE.RESTR>
0

>  <SCORE.RESTR.CAVITY>
0

>  <SCORE.RESTR.norm>
0

>  <SCORE.SYSTEM>
0

>  <SCORE.SYSTEM.CONST>
0

>  <SCORE.SYSTEM.DIHEDRAL>
0

>  <SCORE.SYSTEM.SOLV>
0

>  <SCORE.SYSTEM.norm>
0

>  <SCORE.heavy>
14

>  <SCORE.norm>
0.535165

$$$$
ligand.pdb
  rDOCK(R)          3D
libRbt.so/2013.1/901 2013/11/27
 14 14  0  0  0  0  0  0  0  0999 V2000
   11.8160  -10.3492  -15.4247 C   0  0  0  0  0  0
   13.4599   -5.3341   -9.4617 C   0  0  0  0  0  0
   12.7206   -9.2108  -14.9815 C   0  0  0  0  0  0
   12.3519   -8.6543  -13.6067 C   0  0  0  0  0  0
   13.0591   -6.9090  -12.0270 C   0  0  0  0  0  0
   14.2020   -5.1658  -10.6249 C   0  0  0  0  0  0
   15.2025   -4.2049  -10.6556 C   0  0  0  0  0  0
   15.4645   -3.4350   -9.5321 C   0  0  0  0  0  0
   14.7170   -3.5965   -8.3874 C   0  0  0  0  0  0
   13.7232   -4.5454   -8.3504 C   0  0  0  0  0  0
   13.2049   -7.5471  -13.2101 N   0  0  0  0  0  0
   13.9848   -5.9201  -11.8035 N   0  0  0  0  0  0
   12.1597   -7.1909  -11.2245 O   0  0  0  0  0  0
   14.0732   -9.6475  -14.9537 O   0  0  0  0  0  0
  2 10  2  0  0  0
  2  6  1  0  0  0
  3  4  1  0  0  0
  3  1  1  0  0  0
  4 11  1  0  0  0
  5 11  1  0  0  0
  5 12  1  0  0  0
  6  7  2  0  0  0
  7  8  1  0  0  0
  9  8  2  0  0  0
 10  9  1  0  0  0
 12  6  1  0  0  0
 13  5  2  0  0  0
 14  3  1  0  0  0
M  END
>  <CHROM.1>
-178.65974391,-179.68002746,-0.06384903,13.54140804,-6.66744464,-11.83512674
1.84552336,-0.53031719,-2.19827296

>  <Name>
ligand.pdb

>  <RI>
2.24188e+07

>  <Rbt.Current_Directory>
/home/v/Downloads/rDock_2013.1_src/bin

>  <Rbt.Executable>
rbdock ($Id: //depot/dev/client3/rdock/2013.1/src/exe/rbdock.cxx#4 $)

>  <Rbt.Library>
libRbt.so (2013.1, Build901 2013/11/27)

>  <Rbt.Parameter_File>
/home/v/Downloads/rDock_2013.1_src/data/scripts/dock_solv.prm

>  <Rbt.Receptor>
/home/v/Desktop/r.prm

>  <SCORE>
7.4926

>  <SCORE.INTER>
8.4

>  <SCORE.INTER.CONST>
1

>  <SCORE.INTER.POLAR>
0

>  <SCORE.INTER.ROT>
3

>  <SCORE.INTER.SOLV>
0

>  <SCORE.INTER.VDW>
0

>  <SCORE.INTER.norm>
0.6

>  <SCORE.INTRA>
-0.907397

>  <SCORE.INTRA.DIHEDRAL>
-1.61694

>  <SCORE.INTRA.DIHEDRAL.0>
1.6411

>  <SCORE.INTRA.POLAR>
0

>  <SCORE.INTRA.POLAR.0>
0

>  <SCORE.INTRA.REPUL>
0

>  <SCORE.INTRA.REPUL.0>
0

>  <SCORE.INTRA.SOLV>
-0.293116

>  <SCORE.INTRA.SOLV.lig_0>
-16.0602

>  <SCORE.INTRA.VDW>
0.0476298

>  <SCORE.INTRA.VDW.0>
-0.639572

>  <SCORE.INTRA.norm>
-0.0648141

>  <SCORE.RESTR>
0

>  <SCORE.RESTR.CAVITY>
0

>  <SCORE.RESTR.norm>
0

>  <SCORE.SYSTEM>
0

>  <SCORE.SYSTEM.CONST>
0

>  <SCORE.SYSTEM.DIHEDRAL>
0

>  <SCORE.SYSTEM.SOLV>
0

>  <SCORE.SYSTEM.norm>
0

>  <SCORE.heavy>
14

>  <SCORE.norm>
0.535186

$$$$
ligand.pdb
  rDOCK(R)          3D
libRbt.so/2013.1/901 2013/11/27
 14 14  0  0  0  0  0  0  0  0999 V2000
   15.1375   -7.9838  -16.5091 C   0  0  0  0  0  0
   18.3550  -13.7515  -12.0609 C   0  0  0  0  0  0
   16.1488   -8.2806  -15.4137 C   0  0  0  0  0  0
   16.1634   -9.7505  -14.9954 C   0  0  0  0  0  0
   17.2759  -11.2437  -13.3910 C   0  0  0  0  0  0
   18.7649  -12.4554  -11.7707 C   0  0  0  0  0  0
   19.7230  -12.2534  -10.7876 C   0  0  0  0  0  0
   20.2723  -13.3358  -10.1165 C   0  0  0  0  0  0
   19.8524  -14.6161  -10.3984 C   0  0  0  0  0  0
   18.9023  -14.8235  -11.3700 C   0  0  0  0  0  0
   17.1073  -10.0119  -13.9223 N   0  0  0  0  0  0
   18.2444  -11.3099  -12.4202 N   0  0  0  0  0  0
   16.6039  -12.2205  -13.7471 O   0  0  0  0  0  0
   17.4528   -7.9113  -15.8430 O   0  0  0  0  0  0
  2 10  2  0  0  0
  2  6  1  0  0  0
  3  4  1  0  0  0
  3  1  1  0  0  0
  4 11  1  0  0  0
  5 11  1  0  0  0
  5 12  1  0  0  0
  6  7  2  0  0  0
  7  8  1  0  0  0
  9  8  2  0  0  0
 10  9  1  0  0  0
 12  6  1  0  0  0
 13  5  2  0  0  0
 14  3  1  0  0  0
M  END
>  <CHROM.1>
-178.37690066,179.49528099,1.11131797,17.79037126,-11.32500472,-13.16046822
2.12473830,-0.66037305,-0.37569437

>  <Name>
ligand.pdb

>  <RI>
2.24188e+07

>  <Rbt.Current_Directory>
/home/v/Downloads/rDock_2013.1_src/bin

>  <Rbt.Executable>
rbdock ($Id: //depot/dev/client3/rdock/2013.1/src/exe/rbdock.cxx#4 $)

>  <Rbt.Library>
libRbt.so (2013.1, Build901 2013/11/27)

>  <Rbt.Parameter_File>
/home/v/Downloads/rDock_2013.1_src/data/scripts/dock_solv.prm

>  <Rbt.Receptor>
/home/v/Desktop/r.prm

>  <SCORE>
7.49225

>  <SCORE.INTER>
8.4

>  <SCORE.INTER.CONST>
1

>  <SCORE.INTER.POLAR>
0

>  <SCORE.INTER.ROT>
3

>  <SCORE.INTER.SOLV>
0

>  <SCORE.INTER.VDW>
0

>  <SCORE.INTER.norm>
0.6

>  <SCORE.INTRA>
-0.907746

>  <SCORE.INTRA.DIHEDRAL>
-1.60968

>  <SCORE.INTRA.DIHEDRAL.0>
1.6411

>  <SCORE.INTRA.POLAR>
0

>  <SCORE.INTRA.POLAR.0>
0

>  <SCORE.INTRA.REPUL>
0

>  <SCORE.INTRA.REPUL.0>
0

>  <SCORE.INTRA.SOLV>
-0.295496

>  <SCORE.INTRA.SOLV.lig_0>
-16.0602

>  <SCORE.INTRA.VDW>
0.0448399

>  <SCORE.INTRA.VDW.0>
-0.639572

>  <SCORE.INTRA.norm>
-0.064839

>  <SCORE.RESTR>
0

>  <SCORE.RESTR.CAVITY>
0

>  <SCORE.RESTR.norm>
0

>  <SCORE.SYSTEM>
0

>  <SCORE.SYSTEM.CONST>
0

>  <SCORE.SYSTEM.DIHEDRAL>
0

>  <SCORE.SYSTEM.SOLV>
0

>  <SCORE.SYSTEM.norm>
0

>  <SCORE.heavy>
14

>  <SCORE.norm>
0.535161

$$$$
ligand.pdb
  rDOCK(R)          3D
libRbt.so/2013.1/901 2013/11/27
 14 14  0  0  0  0  0  0  0  0999 V2000
   14.4490   -8.5463  -16.7907 C   0  0  0  0  0  0
   14.3815   -6.9782   -8.9845 C   0  0  0  0  0  0
   14.6493   -9.1460  -15.4083 C   0  0  0  0  0  0
   14.5315   -8.1150  -14.2863 C   0  0  0  0  0  0
   14.7042   -7.9629  -11.8391 C   0  0  0  0  0  0
   14.7633   -8.2649   -9.3459 C   0  0  0  0  0  0
   15.0471   -9.1904   -8.3518 C   0  0  0  0  0  0
   14.9351   -8.8349   -7.0158 C   0  0  0  0  0  0
   14.5701   -7.5551   -6.6639 C   0  0  0  0  0  0
   14.2891   -6.6326   -7.6435 C   0  0  0  0  0  0
   14.7564   -8.6962  -12.9738 N   0  0  0  0  0  0
   14.8947   -8.6899  -10.6902 N   0  0  0  0  0  0
   14.5111   -6.7401  -11.8444 O   0  0  0  0  0  0
   13.6997  -10.1800  -15.1847 O   0  0  0  0  0  0
  2 10  2  0  0  0
  2  6  1  0  0  0
  3  4  1  0  0  0
  3  1  1  0  0  0
  4 11  1  0  0  0
  5 11  1  0  0  0
  5 12  1  0  0  0
  6  7  2  0  0  0
  7  8  1  0  0  0
  9  8  2  0  0  0
 10  9  1  0  0  0
 12  6  1  0  0  0
 13  5  2  0  0  0
 14  3  1  0  0  0
M  END
>  <CHROM.1>
-178.64092386,179.79313322,0.99224964,14.56871779,-8.26717032,-11.37548426
2.22500274,1.50333652,-2.36604531

>  <Name>
ligand.pdb

>  <RI>
2.24188e+07

>  <Rbt.Current_Directory>
/home/v/Downloads/rDock_2013.1_src/bin

>  <Rbt.Executable>
rbdock ($Id: //depot/dev/client3/rdock/2013.1/src/exe/rbdock.cxx#4 $)

>  <Rbt.Library>
libRbt.so (2013.1, Build901 2013/11/27)

>  <Rbt.Parameter_File>
/home/v/Downloads/rDock_2013.1_src/data/scripts/dock_solv.prm

>  <Rbt.Receptor>
/home/v/Desktop/r.prm

>  <SCORE>
7.49203

>  <SCORE.INTER>
8.4

>  <SCORE.INTER.CONST>
1

>  <SCORE.INTER.POLAR>
0

>  <SCORE.INTER.ROT>
3

>  <SCORE.INTER.SOLV>
0

>  <SCORE.INTER.VDW>
0

>  <SCORE.INTER.norm>
0.6

>  <SCORE.INTRA>
-0.907967

>  <SCORE.INTRA.DIHEDRAL>
-1.61354

>  <SCORE.INTRA.DIHEDRAL.0>
1.6411

>  <SCORE.INTRA.POLAR>
0

>  <SCORE.INTRA.POLAR.0>
0

>  <SCORE.INTRA.REPUL>
0

>  <SCORE.INTRA.REPUL.0>
0

>  <SCORE.INTRA.SOLV>
-0.293918

>  <SCORE.INTRA.SOLV.lig_0>
-16.0602

>  <SCORE.INTRA.VDW>
0.045761

>  <SCORE.INTRA.VDW.0>
-0.639572

>  <SCORE.INTRA.norm>
-0.0648548

>  <SCORE.RESTR>
0

>  <SCORE.RESTR.CAVITY>
0

>  <SCORE.RESTR.norm>
0

>  <SCORE.SYSTEM>
0

>  <SCORE.SYSTEM.CONST>
0

>  <SCORE.SYSTEM.DIHEDRAL>
0

>  <SCORE.SYSTEM.SOLV>
0

>  <SCORE.SYSTEM.norm>
0

>  <SCORE.heavy>
14

>  <SCORE.norm>
0.535145

$$$$
ligand.pdb
  rDOCK(R)          3D
libRbt.so/2013.1/901 2013/11/27
 14 14  0  0  0  0  0  0  0  0999 V2000
    9.6938   -9.4799   -7.9666 C   0  0  0  0  0  0
   15.5191  -11.8756  -12.8384 C   0  0  0  0  0  0
   11.1899   -9.7262   -8.0754 C   0  0  0  0  0  0
   11.6051  -10.2968   -9.4310 C   0  0  0  0  0  0
   13.6130  -11.0826  -10.6112 C   0  0  0  0  0  0
   15.8951  -11.5883  -11.5315 C   0  0  0  0  0  0
   17.2330  -11.6835  -11.1763 C   0  0  0  0  0  0
   18.1811  -12.0468  -12.1213 C   0  0  0  0  0  0
   17.8009  -12.3438  -13.4107 C   0  0  0  0  0  0
   16.4770  -12.2531  -13.7691 C   0  0  0  0  0  0
   13.0327  -10.5549   -9.5099 N   0  0  0  0  0  0
   14.9768  -11.2110  -10.5217 N   0  0  0  0  0  0
   12.9625  -11.4274  -11.6065 O   0  0  0  0  0  0
   11.8995   -8.5153   -7.8488 O   0  0  0  0  0  0
  2 10  2  0  0  0
  2  6  1  0  0  0
  3  4  1  0  0  0
  3  1  1  0  0  0
  4 11  1  0  0  0
  5 11  1  0  0  0
  5 12  1  0  0  0
  6  7  2  0  0  0
  7  8  1  0  0  0
  9  8  2  0  0  0
 10  9  1  0  0  0
 12  6  1  0  0  0
 13  5  2  0  0  0
 14  3  1  0  0  0
M  END
>  <CHROM.1>
-178.71069733,178.82175455,1.22315866,14.16291943,-10.94924863,-10.66528379
2.44876228,-0.04212008,1.09041759

>  <Name>
ligand.pdb

>  <RI>
2.24188e+07

>  <Rbt.Current_Directory>
/home/v/Downloads/rDock_2013.1_src/bin

>  <Rbt.Executable>
rbdock ($Id: //depot/dev/client3/rdock/2013.1/src/exe/rbdock.cxx#4 $)

>  <Rbt.Library>
libRbt.so (2013.1, Build901 2013/11/27)

>  <Rbt.Parameter_File>
/home/v/Downloads/rDock_2013.1_src/data/scripts/dock_solv.prm

>  <Rbt.Receptor>
/home/v/Desktop/r.prm

>  <SCORE>
7.49232

>  <SCORE.INTER>
8.4

>  <SCORE.INTER.CONST>
1

>  <SCORE.INTER.POLAR>
0

>  <SCORE.INTER.ROT>
3

>  <SCORE.INTER.SOLV>
0

>  <SCORE.INTER.VDW>
0

>  <SCORE.INTER.norm>
0.6

>  <SCORE.INTRA>
-0.907683

>  <SCORE.INTRA.DIHEDRAL>
-1.61187

>  <SCORE.INTRA.DIHEDRAL.0>
1.6411

>  <SCORE.INTRA.POLAR>
0

>  <SCORE.INTRA.POLAR.0>
0

>  <SCORE.INTRA.REPUL>
0

>  <SCORE.INTRA.REPUL.0>
0

>  <SCORE.INTRA.SOLV>
-0.294886

>  <SCORE.INTRA.SOLV.lig_0>
-16.0602

>  <SCORE.INTRA.VDW>
0.0456925

>  <SCORE.INTRA.VDW.0>
-0.639572

>  <SCORE.INTRA.norm>
-0.0648345

>  <SCORE.RESTR>
0

>  <SCORE.RESTR.CAVITY>
0

>  <SCORE.RESTR.norm>
0

>  <SCORE.SYSTEM>
0

>  <SCORE.SYSTEM.CONST>
0

>  <SCORE.SYSTEM.DIHEDRAL>
0

>  <SCORE.SYSTEM.SOLV>
0

>  <SCORE.SYSTEM.norm>
0

>  <SCORE.heavy>
14

>  <SCORE.norm>
0.535165

$$$$
ligand.pdb
  rDOCK(R)          3D
libRbt.so/2013.1/901 2013/11/27
 14 14  0  0  0  0  0  0  0  0999 V2000
   13.2067  -10.2065  -15.0407 C   0  0  0  0  0  0
   15.2949   -7.0517   -8.0350 C   0  0  0  0  0  0
   13.5709  -10.5279  -13.6002 C   0  0  0  0  0  0
   13.9648   -9.2916  -12.7928 C   0  0  0  0  0  0
   14.7210   -8.6747  -10.5368 C   0  0  0  0  0  0
   15.2737   -8.4401   -8.0976 C   0  0  0  0  0  0
   15.5536   -9.1729   -6.9530 C   0  0  0  0  0  0
   15.8357   -8.5229   -5.7606 C   0  0  0  0  0  0
   15.8690   -7.1477   -5.7080 C   0  0  0  0  0  0
   15.5943   -6.4154   -6.8385 C   0  0  0  0  0  0
   14.3396   -9.6177  -11.4275 N   0  0  0  0  0  0
   14.9919   -9.1624   -9.2825 N   0  0  0  0  0  0
   14.8246   -7.4781  -10.8369 O   0  0  0  0  0  0
   12.4794  -11.1707  -12.9548 O   0  0  0  0  0  0
  2 10  2  0  0  0
  2  6  1  0  0  0
  3  4  1  0  0  0
  3  1  1  0  0  0
  4 11  1  0  0  0
  5 11  1  0  0  0
  5 12  1  0  0  0
  6  7  2  0  0  0
  7  8  1  0  0  0
  9  8  2  0  0  0
 10  9  1  0  0  0
 12  6  1  0  0  0
 13  5  2  0  0  0
 14  3  1  0  0  0
M  END
>  <CHROM.1>
-178.67208938,-179.88639378,1.12377800,14.62515749,-8.82064171,-9.99246804
-2.67496960,1.23042942,2.29549693

>  <Name>
ligand.pdb

>  <RI>
2.24188e+07

>  <Rbt.Current_Directory>
/home/v/Downloads/rDock_2013.1_src/bin

>  <Rbt.Executable>
rbdock ($Id: //depot/dev/client3/rdock/2013.1/src/exe/rbdock.cxx#4 $)

>  <Rbt.Library>
libRbt.so (2013.1, Build901 2013/11/27)

>  <Rbt.Parameter_File>
/home/v/Downloads/rDock_2013.1_src/data/scripts/dock_solv.prm

>  <Rbt.Receptor>
/home/v/Desktop/r.prm

>  <SCORE>
7.4922

>  <SCORE.INTER>
8.4

>  <SCORE.INTER.CONST>
1

>  <SCORE.INTER.POLAR>
0

>  <SCORE.INTER.ROT>
3

>  <SCORE.INTER.SOLV>
0

>  <SCORE.INTER.VDW>
0

>  <SCORE.INTER.norm>
0.6

>  <SCORE.INTRA>
-0.907795

>  <SCORE.INTRA.DIHEDRAL>
-1.61318

>  <SCORE.INTRA.DIHEDRAL.0>
1.6411

>  <SCORE.INTRA.POLAR>
0

>  <SCORE.INTRA.POLAR.0>
0

>  <SCORE.INTRA.REPUL>
0

>  <SCORE.INTRA.REPUL.0>
0

>  <SCORE.INTRA.SOLV>
-0.293344

>  <SCORE.INTRA.SOLV.lig_0>
-16.0602

>  <SCORE.INTRA.VDW>
0.0454673

>  <SCORE.INTRA.VDW.0>
-0.639572

>  <SCORE.INTRA.norm>
-0.0648425

>  <SCORE.RESTR>
0

>  <SCORE.RESTR.CAVITY>
0

>  <SCORE.RESTR.norm>
0

>  <SCORE.SYSTEM>
0

>  <SCORE.SYSTEM.CONST>
0

>  <SCORE.SYSTEM.DIHEDRAL>
0

>  <SCORE.SYSTEM.SOLV>
0

>  <SCORE.SYSTEM.norm>
0

>  <SCORE.heavy>
14

>  <SCORE.norm>
0.535157

$$$$
ligand.pdb
  rDOCK(R)          3D
libRbt.so/2013.1/901 2013/11/27
 14 14  0  0  0  0  0  0  0  0999 V2000
   17.6645  -11.4443   -9.3336 C   0  0  0  0  0  0
   14.4765   -4.1651   -9.8417 C   0  0  0  0  0  0
   17.8027  -10.0009   -8.8772 C   0  0  0  0  0  0
   16.7613   -9.0735   -9.5027 C   0  0  0  0  0  0
   16.1122   -6.7028   -9.5149 C   0  0  0  0  0  0
   15.6464   -4.2697   -9.0984 C   0  0  0  0  0  0
   16.1432   -3.1437   -8.4575 C   0  0  0  0  0  0
   15.4688   -1.9351   -8.5486 C   0  0  0  0  0  0
   14.3182   -1.8343   -9.2976 C   0  0  0  0  0  0
   13.8213   -2.9453   -9.9365 C   0  0  0  0  0  0
   16.9189   -7.6942   -9.0740 N   0  0  0  0  0  0
   16.3800   -5.4735   -8.9654 N   0  0  0  0  0  0
   15.2182   -6.8930  -10.3498 O   0  0  0  0  0  0
   17.6945   -9.9263   -7.4617 O   0  0  0  0  0  0
  2 10  2  0  0  0
  2  6  1  0  0  0
  3  4  1  0  0  0
  3  1  1  0  0  0
  4 11  1  0  0  0
  5 11  1  0  0  0
  5 12  1  0  0  0
  6  7  2  0  0  0
  7  8  1  0  0  0
  9  8  2  0  0  0
 10  9  1  0  0  0
 12  6  1  0  0  0
 13  5  2  0  0  0
 14  3  1  0  0  0
M  END
>  <CHROM.1>
-179.08066909,179.36433297,0.54478813,16.07283107,-6.26242540,-9.15406604
1.06928385,0.80314974,-2.81788538

>  <Name>
ligand.pdb

>  <RI>
2.24188e+07

>  <Rbt.Current_Directory>
/home/v/Downloads/rDock_2013.1_src/bin

>  <Rbt.Executable>
rbdock ($Id: //depot/dev/client3/rdock/2013.1/src/exe/rbdock.cxx#4 $)

>  <Rbt.Library>
libRbt.so (2013.1, Build901 2013/11/27)

>  <Rbt.Parameter_File>
/home/v/Downloads/rDock_2013.1_src/data/scripts/dock_solv.prm

>  <Rbt.Receptor>
/home/v/Desktop/r.prm

>  <SCORE>
7.49223

>  <SCORE.INTER>
8.4

>  <SCORE.INTER.CONST>
1

>  <SCORE.INTER.POLAR>
0

>  <SCORE.INTER.ROT>
3

>  <SCORE.INTER.SOLV>
0

>  <SCORE.INTER.VDW>
0

>  <SCORE.INTER.norm>
0.6

>  <SCORE.INTRA>
-0.907769

>  <SCORE.INTRA.DIHEDRAL>
-1.61912

>  <SCORE.INTRA.DIHEDRAL.0>
1.6411

>  <SCORE.INTRA.POLAR>
0

>  <SCORE.INTRA.POLAR.0>
0

>  <SCORE.INTRA.REPUL>
0

>  <SCORE.INTRA.REPUL.0>
0

>  <SCORE.INTRA.SOLV>
-0.292532

>  <SCORE.INTRA.SOLV.lig_0>
-16.0602

>  <SCORE.INTRA.VDW>
0.048056

>  <SCORE.INTRA.VDW.0>
-0.639572

>  <SCORE.INTRA.norm>
-0.0648407

>  <SCORE.RESTR>
0

>  <SCORE.RESTR.CAVITY>
0

>  <SCORE.RESTR.norm>
0

>  <SCORE.SYSTEM>
0

>  <SCORE.SYSTEM.CONST>
0

>  <SCORE.SYSTEM.DIHEDRAL>
0

>  <SCORE.SYSTEM.SOLV>
0

>  <SCORE.SYSTEM.norm>
0

>  <SCORE.heavy>
14

>  <SCORE.norm>
0.535159

$$$$
ligand.pdb
  rDOCK(R)          3D
libRbt.so/2013.1/901 2013/11/27
 14 14  0  0  0  0  0  0  0  0999 V2000
   17.2793  -14.8085  -11.7335 C   0  0  0  0  0  0
   10.4229  -10.8972  -10.6857 C   0  0  0  0  0  0
   16.6654  -13.4778  -11.3296 C   0  0  0  0  0  0
   15.1428  -13.4574  -11.4601 C   0  0  0  0  0  0
   13.2422  -11.9335  -11.1326 C   0  0  0  0  0  0
   11.5843  -10.1591  -10.4896 C   0  0  0  0  0  0
   11.4846   -8.8401  -10.0706 C   0  0  0  0  0  0
   10.2396   -8.2748   -9.8376 C   0  0  0  0  0  0
    9.0924   -9.0063  -10.0469 C   0  0  0  0  0  0
    9.1837  -10.3131  -10.4636 C   0  0  0  0  0  0
   14.5725  -12.1717  -11.0957 N   0  0  0  0  0  0
   12.8835  -10.6781  -10.7084 N   0  0  0  0  0  0
   12.4252  -12.7764  -11.5259 O   0  0  0  0  0  0
   17.0164  -13.1681   -9.9872 O   0  0  0  0  0  0
  2 10  2  0  0  0
  2  6  1  0  0  0
  3  4  1  0  0  0
  3  1  1  0  0  0
  4 11  1  0  0  0
  5 11  1  0  0  0
  5 12  1  0  0  0
  6  7  2  0  0  0
  7  8  1  0  0  0
  9  8  2  0  0  0
 10  9  1  0  0  0
 12  6  1  0  0  0
 13  5  2  0  0  0
 14  3  1  0  0  0
M  END
>  <CHROM.1>
-178.87861832,-179.72109587,0.06304181,13.07167121,-11.52445554,-10.76979889
0.58254568,0.16185689,-2.68903093

>  <Name>
ligand.pdb

>  <RI>
2.24188e+07

>  <Rbt.Current_Directory>
/home/v/Downloads/rDock_2013.1_src/bin

>  <Rbt.Executable>
rbdock ($Id: //depot/dev/client3/rdock/2013.1/src/exe/rbdock.cxx#4 $)

>  <Rbt.Library>
libRbt.so (2013.1, Build901 2013/11/27)

>  <Rbt.Parameter_File>
/home/v/Downloads/rDock_2013.1_src/data/scripts/dock_solv.prm

>  <Rbt.Receptor>
/home/v/Desktop/r.prm

>  <SCORE>
7.49251

>  <SCORE.INTER>
8.4

>  <SCORE.INTER.CONST>
1

>  <SCORE.INTER.POLAR>
0

>  <SCORE.INTER.ROT>
3

>  <SCORE.INTER.SOLV>
0

>  <SCORE.INTER.VDW>
0

>  <SCORE.INTER.norm>
0.6

>  <SCORE.INTRA>
-0.907493

>  <SCORE.INTRA.DIHEDRAL>
-1.61892

>  <SCORE.INTRA.DIHEDRAL.0>
1.6411

>  <SCORE.INTRA.POLAR>
0

>  <SCORE.INTRA.POLAR.0>
0

>  <SCORE.INTRA.REPUL>
0

>  <SCORE.INTRA.REPUL.0>
0

>  <SCORE.INTRA.SOLV>
-0.292198

>  <SCORE.INTRA.SOLV.lig_0>
-16.0602

>  <SCORE.INTRA.VDW>
0.0480644

>  <SCORE.INTRA.VDW.0>
-0.639572

>  <SCORE.INTRA.norm>
-0.064821

>  <SCORE.RESTR>
0

>  <SCORE.RESTR.CAVITY>
0

>  <SCORE.RESTR.norm>
0

>  <SCORE.SYSTEM>
0

>  <SCORE.SYSTEM.CONST>
0

>  <SCORE.SYSTEM.DIHEDRAL>
0

>  <SCORE.SYSTEM.SOLV>
0

>  <SCORE.SYSTEM.norm>
0

>  <SCORE.heavy>
14

>  <SCORE.norm>
0.535179

$$$$
ligand.pdb
  rDOCK(R)          3D
libRbt.so/2013.1/901 2013/11/27
 14 14  0  0  0  0  0  0  0  0999 V2000
    9.1763  -10.9718  -11.0963 C   0  0  0  0  0  0
   15.9906  -11.1855  -15.2111 C   0  0  0  0  0  0
   10.6917  -10.9728  -10.9773 C   0  0  0  0  0  0
   11.3975  -11.1144  -12.3255 C   0  0  0  0  0  0
   13.6657  -11.2722  -13.2594 C   0  0  0  0  0  0
   16.1117  -11.1955  -13.8264 C   0  0  0  0  0  0
   17.3775  -11.1819  -13.2582 C   0  0  0  0  0  0
   18.5041  -11.1436  -14.0664 C   0  0  0  0  0  0
   18.3783  -11.1479  -15.4373 C   0  0  0  0  0  0
   17.1274  -11.1630  -16.0070 C   0  0  0  0  0  0
   12.8440  -11.1448  -12.1932 N   0  0  0  0  0  0
   15.0020  -11.2329  -12.9476 N   0  0  0  0  0  0
   13.2418  -11.4214  -14.4129 O   0  0  0  0  0  0
   11.1309   -9.7743  -10.3515 O   0  0  0  0  0  0
  2 10  2  0  0  0
  2  6  1  0  0  0
  3  4  1  0  0  0
  3  1  1  0  0  0
  4 11  1  0  0  0
  5 11  1  0  0  0
  5 12  1  0  0  0
  6  7  2  0  0  0
  7  8  1  0  0  0
  9  8  2  0  0  0
 10  9  1  0  0  0
 12  6  1  0  0  0
 13  5  2  0  0  0
 14  3  1  0  0  0
M  END
>  <CHROM.1>
-178.67344656,179.60977587,0.39200440,14.18461249,-11.05002235,-13.17641853
2.66539490,0.05414248,1.34144879

>  <Name>
ligand.pdb

>  <RI>
2.24188e+07

>  <Rbt.Current_Directory>
/home/v/Downloads/rDock_2013.1_src/bin

>  <Rbt.Executable>
rbdock ($Id: //depot/dev/client3/rdock/2013.1/src/exe/rbdock.cxx#4 $)

>  <Rbt.Library>
libRbt.so (2013.1, Build901 2013/11/27)

>  <Rbt.Parameter_File>
/home/v/Downloads/rDock_2013.1_src/data/scripts/dock_solv.prm

>  <Rbt.Receptor>
/home/v/Desktop/r.prm

>  <SCORE>
7.49201

>  <SCORE.INTER>
8.4

>  <SCORE.INTER.CONST>
1

>  <SCORE.INTER.POLAR>
0

>  <SCORE.INTER.ROT>
3

>  <SCORE.INTER.SOLV>
0

>  <SCORE.INTER.VDW>
0

>  <SCORE.INTER.norm>
0.6

>  <SCORE.INTRA>
-0.907992

>  <SCORE.INTRA.DIHEDRAL>
-1.61617

>  <SCORE.INTRA.DIHEDRAL.0>
1.6411

>  <SCORE.INTRA.POLAR>
0

>  <SCORE.INTRA.POLAR.0>
0

>  <SCORE.INTRA.REPUL>
0

>  <SCORE.INTRA.REPUL.0>
0

>  <SCORE.INTRA.SOLV>
-0.294018

>  <SCORE.INTRA.SOLV.lig_0>
-16.0602

>  <SCORE.INTRA.VDW>
0.0471018

>  <SCORE.INTRA.VDW.0>
-0.639572

>  <SCORE.INTRA.norm>
-0.0648566

>  <SCORE.RESTR>
0

>  <SCORE.RESTR.CAVITY>
0

>  <SCORE.RESTR.norm>
0

>  <SCORE.SYSTEM>
0

>  <SCORE.SYSTEM.CONST>
0

>  <SCORE.SYSTEM.DIHEDRAL>
0

>  <SCORE.SYSTEM.SOLV>
0

>  <SCORE.SYSTEM.norm>
0

>  <SCORE.heavy>
14

>  <SCORE.norm>
0.535143

$$$$
ligand.pdb
  rDOCK(R)          3D
libRbt.so/2013.1/901 2013/11/27
 14 14  0  0  0  0  0  0  0  0999 V2000
   21.1507  -13.5346   -5.4820 C   0  0  0  0  0  0
   16.1661   -9.6144  -10.2986 C   0  0  0  0  0  0
   19.6869  -13.2576   -5.7843 C   0  0  0  0  0  0
   19.4902  -12.2597   -6.9250 C   0  0  0  0  0  0
   17.6852  -11.1171   -8.1409 C   0  0  0  0  0  0
   15.5793  -10.3218   -9.2559 C   0  0  0  0  0  0
   14.1959  -10.3515   -9.1532 C   0  0  0  0  0  0
   13.4129   -9.6943  -10.0906 C   0  0  0  0  0  0
   13.9999   -8.9837  -11.1131 C   0  0  0  0  0  0
   15.3698   -8.9485  -11.2200 C   0  0  0  0  0  0
   18.0877  -11.9785   -7.1796 N   0  0  0  0  0  0
   16.3223  -11.0138   -8.2689 N   0  0  0  0  0  0
   18.4829  -10.4731   -8.8347 O   0  0  0  0  0  0
   19.0207  -14.4696   -6.1130 O   0  0  0  0  0  0
  2 10  2  0  0  0
  2  6  1  0  0  0
  3  4  1  0  0  0
  3  1  1  0  0  0
  4 11  1  0  0  0
  5 11  1  0  0  0
  5 12  1  0  0  0
  6  7  2  0  0  0
  7  8  1  0  0  0
  9  8  2  0  0  0
 10  9  1  0  0  0
 12  6  1  0  0  0
 13  5  2  0  0  0
 14  3  1  0  0  0
M  END
>  <CHROM.1>
-178.51042503,179.60872740,0.36614774,17.16179719,-11.22474447,-8.34014450
-0.82576040,-0.09412008,-0.75312968

>  <Name>
ligand.pdb

>  <RI>
2.24188e+07

>  <Rbt.Current_Directory>
/home/v/Downloads/rDock_2013.1_src/bin

>  <Rbt.Executable>
rbdock ($Id: //depot/dev/client3/rdock/2013.1/src/exe/rbdock.cxx#4 $)

>  <Rbt.Library>
libRbt.so (2013.1, Build901 2013/11/27)

>  <Rbt.Parameter_File>
/home/v/Downloads/rDock_2013.1_src/data/scripts/dock_solv.prm

>  <Rbt.Receptor>
/home/v/Desktop/r.prm

>  <SCORE>
7.49209

>  <SCORE.INTER>
8.4

>  <SCORE.INTER.CONST>
1

>  <SCORE.INTER.POLAR>
0

>  <SCORE.INTER.ROT>
3

>  <SCORE.INTER.SOLV>
0

>  <SCORE.INTER.VDW>
0

>  <SCORE.INTER.norm>
0.6

>  <SCORE.INTRA>
-0.90791

>  <SCORE.INTRA.DIHEDRAL>
-1.61445

>  <SCORE.INTRA.DIHEDRAL.0>
1.6411

>  <SCORE.INTRA.POLAR>
0

>  <SCORE.INTRA.POLAR.0>
0

>  <SCORE.INTRA.REPUL>
0

>  <SCORE.INTRA.REPUL.0>
0

>  <SCORE.INTRA.SOLV>
-0.294745

>  <SCORE.INTRA.SOLV.lig_0>
-16.0602

>  <SCORE.INTRA.VDW>
0.0466895

>  <SCORE.INTRA.VDW.0>
-0.639572

>  <SCORE.INTRA.norm>
-0.0648507

>  <SCORE.RESTR>
0

>  <SCORE.RESTR.CAVITY>
0

>  <SCORE.RESTR.norm>
0

>  <SCORE.SYSTEM>
0

>  <SCORE.SYSTEM.CONST>
0

>  <SCORE.SYSTEM.DIHEDRAL>
0

>  <SCORE.SYSTEM.SOLV>
0

>  <SCORE.SYSTEM.norm>
0

>  <SCORE.heavy>
14

>  <SCORE.norm>
0.535149

$$$$
ligand.pdb
  rDOCK(R)          3D
libRbt.so/2013.1/901 2013/11/27
 14 14  0  0  0  0  0  0  0  0999 V2000
   14.9069  -10.5958   -5.9410 C   0  0  0  0  0  0
   16.7412   -6.4994  -12.5178 C   0  0  0  0  0  0
   14.3409   -9.7307   -7.0554 C   0  0  0  0  0  0
   15.4140   -9.2042   -8.0076 C   0  0  0  0  0  0
   15.6363   -7.7653   -9.9880 C   0  0  0  0  0  0
   15.4176   -6.4234  -12.1004 C   0  0  0  0  0  0
   14.5096   -5.6994  -12.8598 C   0  0  0  0  0  0
   14.9199   -5.0738  -14.0278 C   0  0  0  0  0  0
   16.2351   -5.1408  -14.4287 C   0  0  0  0  0  0
   17.1404   -5.8549  -13.6804 C   0  0  0  0  0  0
   14.8620   -8.3560   -9.0501 N   0  0  0  0  0  0
   14.9363   -7.0401  -10.9201 N   0  0  0  0  0  0
   16.8701   -7.8660   -9.9932 O   0  0  0  0  0  0
   13.3828  -10.4675   -7.8038 O   0  0  0  0  0  0
  2 10  2  0  0  0
  2  6  1  0  0  0
  3  4  1  0  0  0
  3  1  1  0  0  0
  4 11  1  0  0  0
  5 11  1  0  0  0
  5 12  1  0  0  0
  6  7  2  0  0  0
  7  8  1  0  0  0
  9  8  2  0  0  0
 10  9  1  0  0  0
 12  6  1  0  0  0
 13  5  2  0  0  0
 14  3  1  0  0  0
M  END
>  <CHROM.1>
-178.76327225,178.88893010,1.63474919,15.36030129,-7.64875333,-10.47135512
-1.74409036,-0.02969408,-0.97191132

>  <Name>
ligand.pdb

>  <RI>
2.24188e+07

>  <Rbt.Current_Directory>
/home/v/Downloads/rDock_2013.1_src/bin

>  <Rbt.Executable>
rbdock ($Id: //depot/dev/client3/rdock/2013.1/src/exe/rbdock.cxx#4 $)

>  <Rbt.Library>
libRbt.so (2013.1, Build901 2013/11/27)

>  <Rbt.Parameter_File>
/home/v/Downloads/rDock_2013.1_src/data/scripts/dock_solv.prm

>  <Rbt.Receptor>
/home/v/Desktop/r.prm

>  <SCORE>
7.49269

>  <SCORE.INTER>
8.4

>  <SCORE.INTER.CONST>
1

>  <SCORE.INTER.POLAR>
0

>  <SCORE.INTER.ROT>
3

>  <SCORE.INTER.SOLV>
0

>  <SCORE.INTER.VDW>
0

>  <SCORE.INTER.norm>
0.6

>  <SCORE.INTRA>
-0.907312

>  <SCORE.INTRA.DIHEDRAL>
-1.6097

>  <SCORE.INTRA.DIHEDRAL.0>
1.6411

>  <SCORE.INTRA.POLAR>
0

>  <SCORE.INTRA.POLAR.0>
0

>  <SCORE.INTRA.REPUL>
0

>  <SCORE.INTRA.REPUL.0>
0

>  <SCORE.INTRA.SOLV>
-0.294585

>  <SCORE.INTRA.SOLV.lig_0>
-16.0602

>  <SCORE.INTRA.VDW>
0.0448303

>  <SCORE.INTRA.VDW.0>
-0.639572

>  <SCORE.INTRA.norm>
-0.064808

>  <SCORE.RESTR>
0

>  <SCORE.RESTR.CAVITY>
0

>  <SCORE.RESTR.norm>
0

>  <SCORE.SYSTEM>
0

>  <SCORE.SYSTEM.CONST>
0

>  <SCORE.SYSTEM.DIHEDRAL>
0

>  <SCORE.SYSTEM.SOLV>
0

>  <SCORE.SYSTEM.norm>
0

>  <SCORE.heavy>
14

>  <SCORE.norm>
0.535192

$$$$
