ligand.pdb
  rDOCK(R)          3D
libRbt.so/2013.1/901 2013/11/27
 14 14  0  0  0  0  0  0  0  0999 V2000
   11.7377   -6.0670  -14.3700 C   0  0  0  0  0  0
   15.3214   -8.0122   -7.5300 C   0  0  0  0  0  0
   12.6865   -7.0533  -13.7083 C   0  0  0  0  0  0
   12.9824   -6.7111  -12.2485 C   0  0  0  0  0  0
   14.3279   -7.5201  -10.3572 C   0  0  0  0  0  0
   15.6777   -8.7649   -8.6429 C   0  0  0  0  0  0
   16.5671   -9.8189   -8.4898 C   0  0  0  0  0  0
   17.0795  -10.1224   -7.2371 C   0  0  0  0  0  0
   16.7338   -9.3647   -6.1410 C   0  0  0  0  0  0
   15.8545   -8.3180   -6.2857 C   0  0  0  0  0  0
   13.9298   -7.6322  -11.6445 N   0  0  0  0  0  0
   15.1892   -8.5072   -9.9468 N   0  0  0  0  0  0
   13.9517   -6.5982   -9.6215 O   0  0  0  0  0  0
   12.1453   -8.3663  -13.7727 O   0  0  0  0  0  0
  2 10  2  0  0  0
  2  6  1  0  0  0
  3  4  1  0  0  0
  3  1  1  0  0  0
  4 11  1  0  0  0
  5 11  1  0  0  0
  5 12  1  0  0  0
  6  7  2  0  0  0
  7  8  1  0  0  0
  9  8  2  0  0  0
 10  9  1  0  0  0
 12  6  1  0  0  0
 13  5  2  0  0  0
 14  3  1  0  0  0
M  END
>  <CHROM.1>
-177.79257483,-179.61653248,0.52559818,14.49358592,-8.01421155,-10.12407154
2.64053722,0.95483929,-2.22804397

>  <Name>
ligand.pdb

>  <RI>
3.29373e+07

>  <Rbt.Current_Directory>
/home/v/Downloads/rDock_2013.1_src/bin

>  <Rbt.Executable>
rbdock ($Id: //depot/dev/client3/rdock/2013.1/src/exe/rbdock.cxx#4 $)

>  <Rbt.Library>
libRbt.so (2013.1, Build901 2013/11/27)

>  <Rbt.Parameter_File>
/home/v/Downloads/rDock_2013.1_src/data/scripts/dock_solv.prm

>  <Rbt.Receptor>
/home/v/Desktop/r.prm

>  <SCORE>
7.49386

>  <SCORE.INTER>
8.4

>  <SCORE.INTER.CONST>
1

>  <SCORE.INTER.POLAR>
0

>  <SCORE.INTER.ROT>
3

>  <SCORE.INTER.SOLV>
0

>  <SCORE.INTER.VDW>
0

>  <SCORE.INTER.norm>
0.6

>  <SCORE.INTRA>
-0.906137

>  <SCORE.INTRA.DIHEDRAL>
-1.60385

>  <SCORE.INTRA.DIHEDRAL.0>
1.6411

>  <SCORE.INTRA.POLAR>
0

>  <SCORE.INTRA.POLAR.0>
0

>  <SCORE.INTRA.REPUL>
0

>  <SCORE.INTRA.REPUL.0>
0

>  <SCORE.INTRA.SOLV>
-0.296867

>  <SCORE.INTRA.SOLV.lig_0>
-16.0602

>  <SCORE.INTRA.VDW>
0.044222

>  <SCORE.INTRA.VDW.0>
-0.639572

>  <SCORE.INTRA.norm>
-0.064724

>  <SCORE.RESTR>
0

>  <SCORE.RESTR.CAVITY>
0

>  <SCORE.RESTR.norm>
0

>  <SCORE.SYSTEM>
0

>  <SCORE.SYSTEM.CONST>
0

>  <SCORE.SYSTEM.DIHEDRAL>
0

>  <SCORE.SYSTEM.SOLV>
0

>  <SCORE.SYSTEM.norm>
0

>  <SCORE.heavy>
14

>  <SCORE.norm>
0.535276

$$$$
ligand.pdb
  rDOCK(R)          3D
libRbt.so/2013.1/901 2013/11/27
 14 14  0  0  0  0  0  0  0  0999 V2000
   12.8296   -5.2875   -8.4337 C   0  0  0  0  0  0
   17.9794   -8.5551  -13.5548 C   0  0  0  0  0  0
   14.2973   -5.3822   -8.8179 C   0  0  0  0  0  0
   14.5496   -6.3359   -9.9851 C   0  0  0  0  0  0
   16.4105   -7.2456  -11.3086 C   0  0  0  0  0  0
   18.5314   -7.7726  -12.5473 C   0  0  0  0  0  0
   19.9031   -7.5646  -12.5275 C   0  0  0  0  0  0
   20.7069   -8.1207  -13.5117 C   0  0  0  0  0  0
   20.1563   -8.9063  -14.4990 C   0  0  0  0  0  0
   18.7983   -9.1179  -14.5238 C   0  0  0  0  0  0
   15.9592   -6.4388  -10.3220 N   0  0  0  0  0  0
   17.7658   -7.1766  -11.5159 N   0  0  0  0  0  0
   15.6613   -7.9874  -11.9575 O   0  0  0  0  0  0
   14.7943   -4.0949   -9.1597 O   0  0  0  0  0  0
  2 10  2  0  0  0
  2  6  1  0  0  0
  3  4  1  0  0  0
  3  1  1  0  0  0
  4 11  1  0  0  0
  5 11  1  0  0  0
  5 12  1  0  0  0
  6  7  2  0  0  0
  7  8  1  0  0  0
  9  8  2  0  0  0
 10  9  1  0  0  0
 12  6  1  0  0  0
 13  5  2  0  0  0
 14  3  1  0  0  0
M  END
>  <CHROM.1>
-178.73265122,178.80205163,0.16077938,16.90482595,-7.07641879,-11.53313781
2.36844659,0.22306285,0.74834046

>  <Name>
ligand.pdb

>  <RI>
3.29373e+07

>  <Rbt.Current_Directory>
/home/v/Downloads/rDock_2013.1_src/bin

>  <Rbt.Executable>
rbdock ($Id: //depot/dev/client3/rdock/2013.1/src/exe/rbdock.cxx#4 $)

>  <Rbt.Library>
libRbt.so (2013.1, Build901 2013/11/27)

>  <Rbt.Parameter_File>
/home/v/Downloads/rDock_2013.1_src/data/scripts/dock_solv.prm

>  <Rbt.Receptor>
/home/v/Desktop/r.prm

>  <SCORE>
7.49235

>  <SCORE.INTER>
8.4

>  <SCORE.INTER.CONST>
1

>  <SCORE.INTER.POLAR>
0

>  <SCORE.INTER.ROT>
3

>  <SCORE.INTER.SOLV>
0

>  <SCORE.INTER.VDW>
0

>  <SCORE.INTER.norm>
0.6

>  <SCORE.INTRA>
-0.907653

>  <SCORE.INTRA.DIHEDRAL>
-1.61626

>  <SCORE.INTRA.DIHEDRAL.0>
1.6411

>  <SCORE.INTRA.POLAR>
0

>  <SCORE.INTRA.POLAR.0>
0

>  <SCORE.INTRA.REPUL>
0

>  <SCORE.INTRA.REPUL.0>
0

>  <SCORE.INTRA.SOLV>
-0.294808

>  <SCORE.INTRA.SOLV.lig_0>
-16.0602

>  <SCORE.INTRA.VDW>
0.0478803

>  <SCORE.INTRA.VDW.0>
-0.639572

>  <SCORE.INTRA.norm>
-0.0648324

>  <SCORE.RESTR>
0

>  <SCORE.RESTR.CAVITY>
0

>  <SCORE.RESTR.norm>
0

>  <SCORE.SYSTEM>
0

>  <SCORE.SYSTEM.CONST>
0

>  <SCORE.SYSTEM.DIHEDRAL>
0

>  <SCORE.SYSTEM.SOLV>
0

>  <SCORE.SYSTEM.norm>
0

>  <SCORE.heavy>
14

>  <SCORE.norm>
0.535168

$$$$
ligand.pdb
  rDOCK(R)          3D
libRbt.so/2013.1/901 2013/11/27
 14 14  0  0  0  0  0  0  0  0999 V2000
   17.0509   -7.3863   -8.6235 C   0  0  0  0  0  0
   19.7865  -14.3995  -11.2160 C   0  0  0  0  0  0
   17.2650   -8.2495   -9.8563 C   0  0  0  0  0  0
   17.9931   -9.5581   -9.5511 C   0  0  0  0  0  0
   18.8253  -11.5655  -10.6998 C   0  0  0  0  0  0
   19.3434  -13.5171  -12.1942 C   0  0  0  0  0  0
   19.3430  -13.9231  -13.5210 C   0  0  0  0  0  0
   19.7665  -15.1998  -13.8596 C   0  0  0  0  0  0
   20.2174  -16.0645  -12.8880 C   0  0  0  0  0  0
   20.2221  -15.6683  -11.5717 C   0  0  0  0  0  0
   18.2093  -10.3626  -10.7414 N   0  0  0  0  0  0
   18.8977  -12.2026  -11.9137 N   0  0  0  0  0  0
   19.2903  -12.0400   -9.6552 O   0  0  0  0  0  0
   16.0147   -8.5491  -10.4629 O   0  0  0  0  0  0
  2 10  2  0  0  0
  2  6  1  0  0  0
  3  4  1  0  0  0
  3  1  1  0  0  0
  4 11  1  0  0  0
  5 11  1  0  0  0
  5 12  1  0  0  0
  6  7  2  0  0  0
  7  8  1  0  0  0
  9  8  2  0  0  0
 10  9  1  0  0  0
 12  6  1  0  0  0
 13  5  2  0  0  0
 14  3  1  0  0  0
M  END
>  <CHROM.1>
-179.08585847,-179.41871676,0.52726137,18.66961896,-11.91888597,-11.12418348
-2.25953215,0.97721405,-2.11106229

>  <Name>
ligand.pdb

>  <RI>
3.29373e+07

>  <Rbt.Current_Directory>
/home/v/Downloads/rDock_2013.1_src/bin

>  <Rbt.Executable>
rbdock ($Id: //depot/dev/client3/rdock/2013.1/src/exe/rbdock.cxx#4 $)

>  <Rbt.Library>
libRbt.so (2013.1, Build901 2013/11/27)

>  <Rbt.Parameter_File>
/home/v/Downloads/rDock_2013.1_src/data/scripts/dock_solv.prm

>  <Rbt.Receptor>
/home/v/Desktop/r.prm

>  <SCORE>
7.49269

>  <SCORE.INTER>
8.4

>  <SCORE.INTER.CONST>
1

>  <SCORE.INTER.POLAR>
0

>  <SCORE.INTER.ROT>
3

>  <SCORE.INTER.SOLV>
0

>  <SCORE.INTER.VDW>
0

>  <SCORE.INTER.norm>
0.6

>  <SCORE.INTRA>
-0.907306

>  <SCORE.INTRA.DIHEDRAL>
-1.61927

>  <SCORE.INTRA.DIHEDRAL.0>
1.6411

>  <SCORE.INTRA.POLAR>
0

>  <SCORE.INTRA.POLAR.0>
0

>  <SCORE.INTRA.REPUL>
0

>  <SCORE.INTRA.REPUL.0>
0

>  <SCORE.INTRA.SOLV>
-0.290845

>  <SCORE.INTRA.SOLV.lig_0>
-16.0602

>  <SCORE.INTRA.VDW>
0.0477522

>  <SCORE.INTRA.VDW.0>
-0.639572

>  <SCORE.INTRA.norm>
-0.0648076

>  <SCORE.RESTR>
0

>  <SCORE.RESTR.CAVITY>
0

>  <SCORE.RESTR.norm>
0

>  <SCORE.SYSTEM>
0

>  <SCORE.SYSTEM.CONST>
0

>  <SCORE.SYSTEM.DIHEDRAL>
0

>  <SCORE.SYSTEM.SOLV>
0

>  <SCORE.SYSTEM.norm>
0

>  <SCORE.heavy>
14

>  <SCORE.norm>
0.535192

$$$$
ligand.pdb
  rDOCK(R)          3D
libRbt.so/2013.1/901 2013/11/27
 14 14  0  0  0  0  0  0  0  0999 V2000
   13.0512  -12.7885  -11.1234 C   0  0  0  0  0  0
   20.8989  -11.4810  -11.4403 C   0  0  0  0  0  0
   14.3557  -12.9070  -10.3521 C   0  0  0  0  0  0
   15.5753  -12.4854  -11.1710 C   0  0  0  0  0  0
   18.0192  -12.3205  -10.9661 C   0  0  0  0  0  0
   20.4307  -12.1125  -10.2940 C   0  0  0  0  0  0
   21.3243  -12.4182   -9.2775 C   0  0  0  0  0  0
   22.6642  -12.0822   -9.4027 C   0  0  0  0  0  0
   23.1246  -11.4694  -10.5462 C   0  0  0  0  0  0
   22.2452  -11.1651  -11.5579 C   0  0  0  0  0  0
   16.8173  -12.6342  -10.4320 N   0  0  0  0  0  0
   19.0763  -12.4800  -10.1050 N   0  0  0  0  0  0
   18.1481  -11.9334  -12.1349 O   0  0  0  0  0  0
   14.2968  -12.1150   -9.1730 O   0  0  0  0  0  0
  2 10  2  0  0  0
  2  6  1  0  0  0
  3  4  1  0  0  0
  3  1  1  0  0  0
  4 11  1  0  0  0
  5 11  1  0  0  0
  5 12  1  0  0  0
  6  7  2  0  0  0
  7  8  1  0  0  0
  9  8  2  0  0  0
 10  9  1  0  0  0
 12  6  1  0  0  0
 13  5  2  0  0  0
 14  3  1  0  0  0
M  END
>  <CHROM.1>
-178.62500538,179.92837705,1.15626851,18.41275118,-12.17798417,-10.57760080
3.12874942,0.10722713,1.76978100

>  <Name>
ligand.pdb

>  <RI>
3.29373e+07

>  <Rbt.Current_Directory>
/home/v/Downloads/rDock_2013.1_src/bin

>  <Rbt.Executable>
rbdock ($Id: //depot/dev/client3/rdock/2013.1/src/exe/rbdock.cxx#4 $)

>  <Rbt.Library>
libRbt.so (2013.1, Build901 2013/11/27)

>  <Rbt.Parameter_File>
/home/v/Downloads/rDock_2013.1_src/data/scripts/dock_solv.prm

>  <Rbt.Receptor>
/home/v/Desktop/r.prm

>  <SCORE>
7.49216

>  <SCORE.INTER>
8.4

>  <SCORE.INTER.CONST>
1

>  <SCORE.INTER.POLAR>
0

>  <SCORE.INTER.ROT>
3

>  <SCORE.INTER.SOLV>
0

>  <SCORE.INTER.VDW>
0

>  <SCORE.INTER.norm>
0.6

>  <SCORE.INTRA>
-0.907843

>  <SCORE.INTRA.DIHEDRAL>
-1.61251

>  <SCORE.INTRA.DIHEDRAL.0>
1.6411

>  <SCORE.INTRA.POLAR>
0

>  <SCORE.INTRA.POLAR.0>
0

>  <SCORE.INTRA.REPUL>
0

>  <SCORE.INTRA.REPUL.0>
0

>  <SCORE.INTRA.SOLV>
-0.293809

>  <SCORE.INTRA.SOLV.lig_0>
-16.0602

>  <SCORE.INTRA.VDW>
0.0453143

>  <SCORE.INTRA.VDW.0>
-0.639572

>  <SCORE.INTRA.norm>
-0.0648459

>  <SCORE.RESTR>
0

>  <SCORE.RESTR.CAVITY>
0

>  <SCORE.RESTR.norm>
0

>  <SCORE.SYSTEM>
0

>  <SCORE.SYSTEM.CONST>
0

>  <SCORE.SYSTEM.DIHEDRAL>
0

>  <SCORE.SYSTEM.SOLV>
0

>  <SCORE.SYSTEM.norm>
0

>  <SCORE.heavy>
14

>  <SCORE.norm>
0.535154

$$$$
ligand.pdb
  rDOCK(R)          3D
libRbt.so/2013.1/901 2013/11/27
 14 14  0  0  0  0  0  0  0  0999 V2000
   22.0990   -8.4791   -7.6469 C   0  0  0  0  0  0
   15.5447   -9.5101  -12.0489 C   0  0  0  0  0  0
   21.2194   -9.5145   -8.3288 C   0  0  0  0  0  0
   19.9774   -8.9079   -8.9810 C   0  0  0  0  0  0
   17.9789   -9.5968  -10.2352 C   0  0  0  0  0  0
   16.2014  -10.6685  -11.6503 C   0  0  0  0  0  0
   15.7226  -11.8985  -12.0782 C   0  0  0  0  0  0
   14.6111  -11.9647  -12.9053 C   0  0  0  0  0  0
   13.9565  -10.8149  -13.2854 C   0  0  0  0  0  0
   14.4243   -9.5930  -12.8638 C   0  0  0  0  0  0
   19.1344   -9.9116   -9.6077 N   0  0  0  0  0  0
   17.3405  -10.6681  -10.8092 N   0  0  0  0  0  0
   17.5362   -8.4414  -10.2756 O   0  0  0  0  0  0
   21.9658  -10.2103   -9.3187 O   0  0  0  0  0  0
  2 10  2  0  0  0
  2  6  1  0  0  0
  3  4  1  0  0  0
  3  1  1  0  0  0
  4 11  1  0  0  0
  5 11  1  0  0  0
  5 12  1  0  0  0
  6  7  2  0  0  0
  7  8  1  0  0  0
  9  8  2  0  0  0
 10  9  1  0  0  0
 12  6  1  0  0  0
 13  5  2  0  0  0
 14  3  1  0  0  0
M  END
>  <CHROM.1>
-178.96195566,179.49821164,0.96845376,17.82833585,-9.97100847,-10.63896205
0.35238818,-0.48818484,0.30454226

>  <Name>
ligand.pdb

>  <RI>
3.29373e+07

>  <Rbt.Current_Directory>
/home/v/Downloads/rDock_2013.1_src/bin

>  <Rbt.Executable>
rbdock ($Id: //depot/dev/client3/rdock/2013.1/src/exe/rbdock.cxx#4 $)

>  <Rbt.Library>
libRbt.so (2013.1, Build901 2013/11/27)

>  <Rbt.Parameter_File>
/home/v/Downloads/rDock_2013.1_src/data/scripts/dock_solv.prm

>  <Rbt.Receptor>
/home/v/Desktop/r.prm

>  <SCORE>
7.49211

>  <SCORE.INTER>
8.4

>  <SCORE.INTER.CONST>
1

>  <SCORE.INTER.POLAR>
0

>  <SCORE.INTER.ROT>
3

>  <SCORE.INTER.SOLV>
0

>  <SCORE.INTER.VDW>
0

>  <SCORE.INTER.norm>
0.6

>  <SCORE.INTRA>
-0.907892

>  <SCORE.INTRA.DIHEDRAL>
-1.61652

>  <SCORE.INTRA.DIHEDRAL.0>
1.6411

>  <SCORE.INTRA.POLAR>
0

>  <SCORE.INTRA.POLAR.0>
0

>  <SCORE.INTRA.REPUL>
0

>  <SCORE.INTRA.REPUL.0>
0

>  <SCORE.INTRA.SOLV>
-0.292886

>  <SCORE.INTRA.SOLV.lig_0>
-16.0602

>  <SCORE.INTRA.VDW>
0.0468127

>  <SCORE.INTRA.VDW.0>
-0.639572

>  <SCORE.INTRA.norm>
-0.0648494

>  <SCORE.RESTR>
0

>  <SCORE.RESTR.CAVITY>
0

>  <SCORE.RESTR.norm>
0

>  <SCORE.SYSTEM>
0

>  <SCORE.SYSTEM.CONST>
0

>  <SCORE.SYSTEM.DIHEDRAL>
0

>  <SCORE.SYSTEM.SOLV>
0

>  <SCORE.SYSTEM.norm>
0

>  <SCORE.heavy>
14

>  <SCORE.norm>
0.535151

$$$$
ligand.pdb
  rDOCK(R)          3D
libRbt.so/2013.1/901 2013/11/27
 14 14  0  0  0  0  0  0  0  0999 V2000
   12.6560   -8.9206   -6.8543 C   0  0  0  0  0  0
   19.7376  -12.0742   -8.6709 C   0  0  0  0  0  0
   13.5554   -9.3600   -7.9983 C   0  0  0  0  0  0
   14.9303   -9.8351   -7.5296 C   0  0  0  0  0  0
   17.0448  -10.6881   -8.4477 C   0  0  0  0  0  0
   18.9386  -11.7059   -9.7470 C   0  0  0  0  0  0
   19.3828  -11.9593  -11.0369 C   0  0  0  0  0  0
   20.6028  -12.5858  -11.2437 C   0  0  0  0  0  0
   21.3961  -12.9357  -10.1744 C   0  0  0  0  0  0
   20.9631  -12.6862   -8.8939 C   0  0  0  0  0  0
   15.7844  -10.2359   -8.6345 N   0  0  0  0  0  0
   17.6841  -11.0653   -9.6026 N   0  0  0  0  0  0
   17.5735  -10.7444   -7.3297 O   0  0  0  0  0  0
   12.9324  -10.4062   -8.7320 O   0  0  0  0  0  0
  2 10  2  0  0  0
  2  6  1  0  0  0
  3  4  1  0  0  0
  3  1  1  0  0  0
  4 11  1  0  0  0
  5 11  1  0  0  0
  5 12  1  0  0  0
  6  7  2  0  0  0
  7  8  1  0  0  0
  9  8  2  0  0  0
 10  9  1  0  0  0
 12  6  1  0  0  0
 13  5  2  0  0  0
 14  3  1  0  0  0
M  END
>  <CHROM.1>
-179.27661890,179.92213381,0.66453928,17.22843634,-11.03489011,-8.86438769
-2.76319864,0.31143933,-1.80482466

>  <Name>
ligand.pdb

>  <RI>
3.29373e+07

>  <Rbt.Current_Directory>
/home/v/Downloads/rDock_2013.1_src/bin

>  <Rbt.Executable>
rbdock ($Id: //depot/dev/client3/rdock/2013.1/src/exe/rbdock.cxx#4 $)

>  <Rbt.Library>
libRbt.so (2013.1, Build901 2013/11/27)

>  <Rbt.Parameter_File>
/home/v/Downloads/rDock_2013.1_src/data/scripts/dock_solv.prm

>  <Rbt.Receptor>
/home/v/Desktop/r.prm

>  <SCORE>
7.49262

>  <SCORE.INTER>
8.4

>  <SCORE.INTER.CONST>
1

>  <SCORE.INTER.POLAR>
0

>  <SCORE.INTER.ROT>
3

>  <SCORE.INTER.SOLV>
0

>  <SCORE.INTER.VDW>
0

>  <SCORE.INTER.norm>
0.6

>  <SCORE.INTRA>
-0.907379

>  <SCORE.INTRA.DIHEDRAL>
-1.62033

>  <SCORE.INTRA.DIHEDRAL.0>
1.6411

>  <SCORE.INTRA.POLAR>
0

>  <SCORE.INTRA.POLAR.0>
0

>  <SCORE.INTRA.REPUL>
0

>  <SCORE.INTRA.REPUL.0>
0

>  <SCORE.INTRA.SOLV>
-0.290918

>  <SCORE.INTRA.SOLV.lig_0>
-16.0602

>  <SCORE.INTRA.VDW>
0.048247

>  <SCORE.INTRA.VDW.0>
-0.639572

>  <SCORE.INTRA.norm>
-0.0648128

>  <SCORE.RESTR>
0

>  <SCORE.RESTR.CAVITY>
0

>  <SCORE.RESTR.norm>
0

>  <SCORE.SYSTEM>
0

>  <SCORE.SYSTEM.CONST>
0

>  <SCORE.SYSTEM.DIHEDRAL>
0

>  <SCORE.SYSTEM.SOLV>
0

>  <SCORE.SYSTEM.norm>
0

>  <SCORE.heavy>
14

>  <SCORE.norm>
0.535187

$$$$
ligand.pdb
  rDOCK(R)          3D
libRbt.so/2013.1/901 2013/11/27
 14 14  0  0  0  0  0  0  0  0999 V2000
   18.7160  -12.5580  -10.7710 C   0  0  0  0  0  0
   11.8859  -10.9018  -14.5148 C   0  0  0  0  0  0
   17.7841  -11.4376  -11.2036 C   0  0  0  0  0  0
   16.5957  -11.9326  -12.0272 C   0  0  0  0  0  0
   14.6156  -11.0606  -13.1936 C   0  0  0  0  0  0
   12.6277   -9.8085  -14.0830 C   0  0  0  0  0  0
   12.1177   -8.5310  -14.2650 C   0  0  0  0  0  0
   10.8761   -8.3537  -14.8574 C   0  0  0  0  0  0
   10.1522   -9.4396  -15.2957 C   0  0  0  0  0  0
   10.6521  -10.7080  -15.1201 C   0  0  0  0  0  0
   15.7321  -10.8479  -12.4614 N   0  0  0  0  0  0
   13.8993   -9.9227  -13.4706 N   0  0  0  0  0  0
   14.2803  -12.1860  -13.5854 O   0  0  0  0  0  0
   17.2963  -10.7435  -10.0628 O   0  0  0  0  0  0
  2 10  2  0  0  0
  2  6  1  0  0  0
  3  4  1  0  0  0
  3  1  1  0  0  0
  4 11  1  0  0  0
  5 11  1  0  0  0
  5 12  1  0  0  0
  6  7  2  0  0  0
  7  8  1  0  0  0
  9  8  2  0  0  0
 10  9  1  0  0  0
 12  6  1  0  0  0
 13  5  2  0  0  0
 14  3  1  0  0  0
M  END
>  <CHROM.1>
-178.56988903,-179.46021084,-0.05066912,14.21541913,-10.65629750,-13.12585771
0.11895051,0.58122724,-2.84102952

>  <Name>
ligand.pdb

>  <RI>
3.29373e+07

>  <Rbt.Current_Directory>
/home/v/Downloads/rDock_2013.1_src/bin

>  <Rbt.Executable>
rbdock ($Id: //depot/dev/client3/rdock/2013.1/src/exe/rbdock.cxx#4 $)

>  <Rbt.Library>
libRbt.so (2013.1, Build901 2013/11/27)

>  <Rbt.Parameter_File>
/home/v/Downloads/rDock_2013.1_src/data/scripts/dock_solv.prm

>  <Rbt.Receptor>
/home/v/Desktop/r.prm

>  <SCORE>
7.49279

>  <SCORE.INTER>
8.4

>  <SCORE.INTER.CONST>
1

>  <SCORE.INTER.POLAR>
0

>  <SCORE.INTER.ROT>
3

>  <SCORE.INTER.SOLV>
0

>  <SCORE.INTER.VDW>
0

>  <SCORE.INTER.norm>
0.6

>  <SCORE.INTRA>
-0.907212

>  <SCORE.INTRA.DIHEDRAL>
-1.6158

>  <SCORE.INTRA.DIHEDRAL.0>
1.6411

>  <SCORE.INTRA.POLAR>
0

>  <SCORE.INTRA.POLAR.0>
0

>  <SCORE.INTRA.REPUL>
0

>  <SCORE.INTRA.REPUL.0>
0

>  <SCORE.INTRA.SOLV>
-0.293203

>  <SCORE.INTRA.SOLV.lig_0>
-16.0602

>  <SCORE.INTRA.VDW>
0.0472887

>  <SCORE.INTRA.VDW.0>
-0.639572

>  <SCORE.INTRA.norm>
-0.0648009

>  <SCORE.RESTR>
0

>  <SCORE.RESTR.CAVITY>
0

>  <SCORE.RESTR.norm>
0

>  <SCORE.SYSTEM>
0

>  <SCORE.SYSTEM.CONST>
0

>  <SCORE.SYSTEM.DIHEDRAL>
0

>  <SCORE.SYSTEM.SOLV>
0

>  <SCORE.SYSTEM.norm>
0

>  <SCORE.heavy>
14

>  <SCORE.norm>
0.535199

$$$$
ligand.pdb
  rDOCK(R)          3D
libRbt.so/2013.1/901 2013/11/27
 14 14  0  0  0  0  0  0  0  0999 V2000
    9.2623   -6.5531  -13.9723 C   0  0  0  0  0  0
   14.0384  -10.0630   -8.6556 C   0  0  0  0  0  0
    9.8778   -6.4227  -12.5885 C   0  0  0  0  0  0
   10.7077   -7.6412  -12.1858 C   0  0  0  0  0  0
   12.0213   -8.4843  -10.2871 C   0  0  0  0  0  0
   13.4205   -8.8893   -8.2404 C   0  0  0  0  0  0
   13.7059   -8.3842   -6.9799 C   0  0  0  0  0  0
   14.6085   -9.0385   -6.1546 C   0  0  0  0  0  0
   15.2068  -10.2081   -6.5658 C   0  0  0  0  0  0
   14.9275  -10.7151   -7.8126 C   0  0  0  0  0  0
   11.2578   -7.5190  -10.8466 N   0  0  0  0  0  0
   12.4921   -8.1742   -9.0353 N   0  0  0  0  0  0
   12.2621   -9.5569  -10.8564 O   0  0  0  0  0  0
   10.7011   -5.2652  -12.5299 O   0  0  0  0  0  0
  2 10  2  0  0  0
  2  6  1  0  0  0
  3  4  1  0  0  0
  3  1  1  0  0  0
  4 11  1  0  0  0
  5 11  1  0  0  0
  5 12  1  0  0  0
  6  7  2  0  0  0
  7  8  1  0  0  0
  9  8  2  0  0  0
 10  9  1  0  0  0
 12  6  1  0  0  0
 13  5  2  0  0  0
 14  3  1  0  0  0
M  END
>  <CHROM.1>
-178.34719442,179.81565235,1.29172345,12.38114945,-8.29029606,-9.88940985
-3.08065430,-0.97532837,0.58631552

>  <Name>
ligand.pdb

>  <RI>
3.29373e+07

>  <Rbt.Current_Directory>
/home/v/Downloads/rDock_2013.1_src/bin

>  <Rbt.Executable>
rbdock ($Id: //depot/dev/client3/rdock/2013.1/src/exe/rbdock.cxx#4 $)

>  <Rbt.Library>
libRbt.so (2013.1, Build901 2013/11/27)

>  <Rbt.Parameter_File>
/home/v/Downloads/rDock_2013.1_src/data/scripts/dock_solv.prm

>  <Rbt.Receptor>
/home/v/Desktop/r.prm

>  <SCORE>
7.49245

>  <SCORE.INTER>
8.4

>  <SCORE.INTER.CONST>
1

>  <SCORE.INTER.POLAR>
0

>  <SCORE.INTER.ROT>
3

>  <SCORE.INTER.SOLV>
0

>  <SCORE.INTER.VDW>
0

>  <SCORE.INTER.norm>
0.6

>  <SCORE.INTRA>
-0.907548

>  <SCORE.INTRA.DIHEDRAL>
-1.60841

>  <SCORE.INTRA.DIHEDRAL.0>
1.6411

>  <SCORE.INTRA.POLAR>
0

>  <SCORE.INTRA.POLAR.0>
0

>  <SCORE.INTRA.REPUL>
0

>  <SCORE.INTRA.REPUL.0>
0

>  <SCORE.INTRA.SOLV>
-0.295203

>  <SCORE.INTRA.SOLV.lig_0>
-16.0602

>  <SCORE.INTRA.VDW>
0.0442579

>  <SCORE.INTRA.VDW.0>
-0.639572

>  <SCORE.INTRA.norm>
-0.0648249

>  <SCORE.RESTR>
0

>  <SCORE.RESTR.CAVITY>
0

>  <SCORE.RESTR.norm>
0

>  <SCORE.SYSTEM>
0

>  <SCORE.SYSTEM.CONST>
0

>  <SCORE.SYSTEM.DIHEDRAL>
0

>  <SCORE.SYSTEM.SOLV>
0

>  <SCORE.SYSTEM.norm>
0

>  <SCORE.heavy>
14

>  <SCORE.norm>
0.535175

$$$$
ligand.pdb
  rDOCK(R)          3D
libRbt.so/2013.1/901 2013/11/27
 14 14  0  0  0  0  0  0  0  0999 V2000
   21.4021  -14.2358   -8.9350 C   0  0  0  0  0  0
   17.6558   -9.0675  -13.6955 C   0  0  0  0  0  0
   20.9397  -12.7943   -9.0722 C   0  0  0  0  0  0
   20.2758  -12.5046  -10.4179 C   0  0  0  0  0  0
   19.2882  -10.6336  -11.6693 C   0  0  0  0  0  0
   18.1837   -8.5443  -12.5209 C   0  0  0  0  0  0
   17.9904   -7.2009  -12.2323 C   0  0  0  0  0  0
   17.2661   -6.3983  -13.1012 C   0  0  0  0  0  0
   16.7577   -6.9188  -14.2698 C   0  0  0  0  0  0
   16.9467   -8.2484  -14.5629 C   0  0  0  0  0  0
   19.8705  -11.1154  -10.5482 N   0  0  0  0  0  0
   18.9302   -9.3105  -11.5931 N   0  0  0  0  0  0
   19.1063  -11.3292  -12.6771 O   0  0  0  0  0  0
   20.0266  -12.4755   -8.0303 O   0  0  0  0  0  0
  2 10  2  0  0  0
  2  6  1  0  0  0
  3  4  1  0  0  0
  3  1  1  0  0  0
  4 11  1  0  0  0
  5 11  1  0  0  0
  5 12  1  0  0  0
  6  7  2  0  0  0
  7  8  1  0  0  0
  9  8  2  0  0  0
 10  9  1  0  0  0
 12  6  1  0  0  0
 13  5  2  0  0  0
 14  3  1  0  0  0
M  END
>  <CHROM.1>
-178.50413096,178.60691201,1.43160919,18.96402137,-10.17662245,-11.57914733
0.00235232,1.12801210,-2.25218030

>  <Name>
ligand.pdb

>  <RI>
3.29373e+07

>  <Rbt.Current_Directory>
/home/v/Downloads/rDock_2013.1_src/bin

>  <Rbt.Executable>
rbdock ($Id: //depot/dev/client3/rdock/2013.1/src/exe/rbdock.cxx#4 $)

>  <Rbt.Library>
libRbt.so (2013.1, Build901 2013/11/27)

>  <Rbt.Parameter_File>
/home/v/Downloads/rDock_2013.1_src/data/scripts/dock_solv.prm

>  <Rbt.Receptor>
/home/v/Desktop/r.prm

>  <SCORE>
7.49271

>  <SCORE.INTER>
8.4

>  <SCORE.INTER.CONST>
1

>  <SCORE.INTER.POLAR>
0

>  <SCORE.INTER.ROT>
3

>  <SCORE.INTER.SOLV>
0

>  <SCORE.INTER.VDW>
0

>  <SCORE.INTER.norm>
0.6

>  <SCORE.INTRA>
-0.907291

>  <SCORE.INTRA.DIHEDRAL>
-1.60783

>  <SCORE.INTRA.DIHEDRAL.0>
1.6411

>  <SCORE.INTRA.POLAR>
0

>  <SCORE.INTRA.POLAR.0>
0

>  <SCORE.INTRA.REPUL>
0

>  <SCORE.INTRA.REPUL.0>
0

>  <SCORE.INTRA.SOLV>
-0.296084

>  <SCORE.INTRA.SOLV.lig_0>
-16.0602

>  <SCORE.INTRA.VDW>
0.0446651

>  <SCORE.INTRA.VDW.0>
-0.639572

>  <SCORE.INTRA.norm>
-0.0648065

>  <SCORE.RESTR>
0

>  <SCORE.RESTR.CAVITY>
0

>  <SCORE.RESTR.norm>
0

>  <SCORE.SYSTEM>
0

>  <SCORE.SYSTEM.CONST>
0

>  <SCORE.SYSTEM.DIHEDRAL>
0

>  <SCORE.SYSTEM.SOLV>
0

>  <SCORE.SYSTEM.norm>
0

>  <SCORE.heavy>
14

>  <SCORE.norm>
0.535193

$$$$
ligand.pdb
  rDOCK(R)          3D
libRbt.so/2013.1/901 2013/11/27
 14 14  0  0  0  0  0  0  0  0999 V2000
   21.2738   -9.1440  -10.0847 C   0  0  0  0  0  0
   13.5952   -8.2334   -8.1833 C   0  0  0  0  0  0
   20.3169   -8.5640   -9.0558 C   0  0  0  0  0  0
   18.8481   -8.7340   -9.4423 C   0  0  0  0  0  0
   16.6023   -8.1898   -8.6044 C   0  0  0  0  0  0
   14.5125   -7.6417   -7.3228 C   0  0  0  0  0  0
   14.0526   -6.9986   -6.1825 C   0  0  0  0  0  0
   12.6946   -6.9626   -5.9021 C   0  0  0  0  0  0
   11.7898   -7.5382   -6.7653 C   0  0  0  0  0  0
   12.2383   -8.1756   -7.8976 C   0  0  0  0  0  0
   17.9461   -8.1624   -8.4572 N   0  0  0  0  0  0
   15.9099   -7.6450   -7.5516 N   0  0  0  0  0  0
   16.0517   -8.6581   -9.6094 O   0  0  0  0  0  0
   20.5339   -9.1758   -7.7910 O   0  0  0  0  0  0
  2 10  2  0  0  0
  2  6  1  0  0  0
  3  4  1  0  0  0
  3  1  1  0  0  0
  4 11  1  0  0  0
  5 11  1  0  0  0
  5 12  1  0  0  0
  6  7  2  0  0  0
  7  8  1  0  0  0
  9  8  2  0  0  0
 10  9  1  0  0  0
 12  6  1  0  0  0
 13  5  2  0  0  0
 14  3  1  0  0  0
M  END
>  <CHROM.1>
-179.37244582,179.38252799,0.40727477,16.31744056,-8.16854316,-8.10971584
0.32553969,0.07155800,-1.91910302

>  <Name>
ligand.pdb

>  <RI>
3.29373e+07

>  <Rbt.Current_Directory>
/home/v/Downloads/rDock_2013.1_src/bin

>  <Rbt.Executable>
rbdock ($Id: //depot/dev/client3/rdock/2013.1/src/exe/rbdock.cxx#4 $)

>  <Rbt.Library>
libRbt.so (2013.1, Build901 2013/11/27)

>  <Rbt.Parameter_File>
/home/v/Downloads/rDock_2013.1_src/data/scripts/dock_solv.prm

>  <Rbt.Receptor>
/home/v/Desktop/r.prm

>  <SCORE>
7.49285

>  <SCORE.INTER>
8.4

>  <SCORE.INTER.CONST>
1

>  <SCORE.INTER.POLAR>
0

>  <SCORE.INTER.ROT>
3

>  <SCORE.INTER.SOLV>
0

>  <SCORE.INTER.VDW>
0

>  <SCORE.INTER.norm>
0.6

>  <SCORE.INTRA>
-0.907152

>  <SCORE.INTRA.DIHEDRAL>
-1.62144

>  <SCORE.INTRA.DIHEDRAL.0>
1.6411

>  <SCORE.INTRA.POLAR>
0

>  <SCORE.INTRA.POLAR.0>
0

>  <SCORE.INTRA.REPUL>
0

>  <SCORE.INTRA.REPUL.0>
0

>  <SCORE.INTRA.SOLV>
-0.291213

>  <SCORE.INTRA.SOLV.lig_0>
-16.0602

>  <SCORE.INTRA.VDW>
0.0491727

>  <SCORE.INTRA.VDW.0>
-0.639572

>  <SCORE.INTRA.norm>
-0.0647965

>  <SCORE.RESTR>
0

>  <SCORE.RESTR.CAVITY>
0

>  <SCORE.RESTR.norm>
0

>  <SCORE.SYSTEM>
0

>  <SCORE.SYSTEM.CONST>
0

>  <SCORE.SYSTEM.DIHEDRAL>
0

>  <SCORE.SYSTEM.SOLV>
0

>  <SCORE.SYSTEM.norm>
0

>  <SCORE.heavy>
14

>  <SCORE.norm>
0.535203

$$$$
ligand.pdb
  rDOCK(R)          3D
libRbt.so/2013.1/901 2013/11/27
 14 14  0  0  0  0  0  0  0  0999 V2000
   16.6035  -15.8076   -9.3008 C   0  0  0  0  0  0
   19.6038   -8.9907   -6.4856 C   0  0  0  0  0  0
   16.2596  -14.5008   -8.6047 C   0  0  0  0  0  0
   17.4883  -13.6459   -8.2965 C   0  0  0  0  0  0
   18.0810  -11.5081   -7.2380 C   0  0  0  0  0  0
   18.2462   -9.1961   -6.2696 C   0  0  0  0  0  0
   17.5029   -8.2036   -5.6469 C   0  0  0  0  0  0
   18.1090   -7.0174   -5.2603 C   0  0  0  0  0  0
   19.4569   -6.8254   -5.4642 C   0  0  0  0  0  0
   20.1997   -7.8050   -6.0790 C   0  0  0  0  0  0
   17.1469  -12.4130   -7.6076 N   0  0  0  0  0  0
   17.5688  -10.3826   -6.6415 N   0  0  0  0  0  0
   19.2924  -11.6905   -7.4161 O   0  0  0  0  0  0
   15.3620  -13.7444   -9.4068 O   0  0  0  0  0  0
  2 10  2  0  0  0
  2  6  1  0  0  0
  3  4  1  0  0  0
  3  1  1  0  0  0
  4 11  1  0  0  0
  5 11  1  0  0  0
  5 12  1  0  0  0
  6  7  2  0  0  0
  7  8  1  0  0  0
  9  8  2  0  0  0
 10  9  1  0  0  0
 12  6  1  0  0  0
 13  5  2  0  0  0
 14  3  1  0  0  0
M  END
>  <CHROM.1>
-178.84628484,179.95533843,0.82271590,17.87976422,-10.97464489,-7.19594174
-1.89703780,-0.04088304,0.42405333

>  <Name>
ligand.pdb

>  <RI>
3.29373e+07

>  <Rbt.Current_Directory>
/home/v/Downloads/rDock_2013.1_src/bin

>  <Rbt.Executable>
rbdock ($Id: //depot/dev/client3/rdock/2013.1/src/exe/rbdock.cxx#4 $)

>  <Rbt.Library>
libRbt.so (2013.1, Build901 2013/11/27)

>  <Rbt.Parameter_File>
/home/v/Downloads/rDock_2013.1_src/data/scripts/dock_solv.prm

>  <Rbt.Receptor>
/home/v/Desktop/r.prm

>  <SCORE>
7.49206

>  <SCORE.INTER>
8.4

>  <SCORE.INTER.CONST>
1

>  <SCORE.INTER.POLAR>
0

>  <SCORE.INTER.ROT>
3

>  <SCORE.INTER.SOLV>
0

>  <SCORE.INTER.VDW>
0

>  <SCORE.INTER.norm>
0.6

>  <SCORE.INTRA>
-0.907938

>  <SCORE.INTRA.DIHEDRAL>
-1.61641

>  <SCORE.INTRA.DIHEDRAL.0>
1.6411

>  <SCORE.INTRA.POLAR>
0

>  <SCORE.INTRA.POLAR.0>
0

>  <SCORE.INTRA.REPUL>
0

>  <SCORE.INTRA.REPUL.0>
0

>  <SCORE.INTRA.SOLV>
-0.292782

>  <SCORE.INTRA.SOLV.lig_0>
-16.0602

>  <SCORE.INTRA.VDW>
0.0466601

>  <SCORE.INTRA.VDW.0>
-0.639572

>  <SCORE.INTRA.norm>
-0.0648527

>  <SCORE.RESTR>
0

>  <SCORE.RESTR.CAVITY>
0

>  <SCORE.RESTR.norm>
0

>  <SCORE.SYSTEM>
0

>  <SCORE.SYSTEM.CONST>
0

>  <SCORE.SYSTEM.DIHEDRAL>
0

>  <SCORE.SYSTEM.SOLV>
0

>  <SCORE.SYSTEM.norm>
0

>  <SCORE.heavy>
14

>  <SCORE.norm>
0.535147

$$$$
ligand.pdb
  rDOCK(R)          3D
libRbt.so/2013.1/901 2013/11/27
 14 14  0  0  0  0  0  0  0  0999 V2000
   19.0900  -11.3538  -10.3174 C   0  0  0  0  0  0
   14.9830   -5.0561   -7.6965 C   0  0  0  0  0  0
   18.8554   -9.8645  -10.5116 C   0  0  0  0  0  0
   17.7668   -9.3061   -9.5958 C   0  0  0  0  0  0
   16.6015   -7.1944   -9.1216 C   0  0  0  0  0  0
   15.8078   -4.8338   -8.7930 C   0  0  0  0  0  0
   15.9024   -3.5535   -9.3194 C   0  0  0  0  0  0
   15.1922   -2.5094   -8.7454 C   0  0  0  0  0  0
   14.3661   -2.7383   -7.6683 C   0  0  0  0  0  0
   14.2662   -4.0045   -7.1427 C   0  0  0  0  0  0
   17.5364   -7.8876   -9.8097 N   0  0  0  0  0  0
   16.5590   -5.8557   -9.4227 N   0  0  0  0  0  0
   15.8458   -7.7298   -8.3001 O   0  0  0  0  0  0
   20.0619   -9.1484  -10.2822 O   0  0  0  0  0  0
  2 10  2  0  0  0
  2  6  1  0  0  0
  3  4  1  0  0  0
  3  1  1  0  0  0
  4 11  1  0  0  0
  5 11  1  0  0  0
  5 12  1  0  0  0
  6  7  2  0  0  0
  7  8  1  0  0  0
  9  8  2  0  0  0
 10  9  1  0  0  0
 12  6  1  0  0  0
 13  5  2  0  0  0
 14  3  1  0  0  0
M  END
>  <CHROM.1>
-178.93610402,178.91228051,1.60404213,16.71299866,-6.63782592,-9.08238638
0.87620378,-0.64862374,2.98302538

>  <Name>
ligand.pdb

>  <RI>
3.29373e+07

>  <Rbt.Current_Directory>
/home/v/Downloads/rDock_2013.1_src/bin

>  <Rbt.Executable>
rbdock ($Id: //depot/dev/client3/rdock/2013.1/src/exe/rbdock.cxx#4 $)

>  <Rbt.Library>
libRbt.so (2013.1, Build901 2013/11/27)

>  <Rbt.Parameter_File>
/home/v/Downloads/rDock_2013.1_src/data/scripts/dock_solv.prm

>  <Rbt.Receptor>
/home/v/Desktop/r.prm

>  <SCORE>
7.49273

>  <SCORE.INTER>
8.4

>  <SCORE.INTER.CONST>
1

>  <SCORE.INTER.POLAR>
0

>  <SCORE.INTER.ROT>
3

>  <SCORE.INTER.SOLV>
0

>  <SCORE.INTER.VDW>
0

>  <SCORE.INTER.norm>
0.6

>  <SCORE.INTRA>
-0.907266

>  <SCORE.INTRA.DIHEDRAL>
-1.61155

>  <SCORE.INTRA.DIHEDRAL.0>
1.6411

>  <SCORE.INTRA.POLAR>
0

>  <SCORE.INTRA.POLAR.0>
0

>  <SCORE.INTRA.REPUL>
0

>  <SCORE.INTRA.REPUL.0>
0

>  <SCORE.INTRA.SOLV>
-0.293784

>  <SCORE.INTRA.SOLV.lig_0>
-16.0602

>  <SCORE.INTRA.VDW>
0.0454003

>  <SCORE.INTRA.VDW.0>
-0.639572

>  <SCORE.INTRA.norm>
-0.0648047

>  <SCORE.RESTR>
0

>  <SCORE.RESTR.CAVITY>
0

>  <SCORE.RESTR.norm>
0

>  <SCORE.SYSTEM>
0

>  <SCORE.SYSTEM.CONST>
0

>  <SCORE.SYSTEM.DIHEDRAL>
0

>  <SCORE.SYSTEM.SOLV>
0

>  <SCORE.SYSTEM.norm>
0

>  <SCORE.heavy>
14

>  <SCORE.norm>
0.535195

$$$$
ligand.pdb
  rDOCK(R)          3D
libRbt.so/2013.1/901 2013/11/27
 14 14  0  0  0  0  0  0  0  0999 V2000
   20.5993  -13.0838  -13.9435 C   0  0  0  0  0  0
   13.1401  -12.2252  -11.2899 C   0  0  0  0  0  0
   19.6097  -12.1025  -13.3365 C   0  0  0  0  0  0
   18.2205  -12.7050  -13.1295 C   0  0  0  0  0  0
   15.9824  -12.0579  -12.3460 C   0  0  0  0  0  0
   13.9272  -11.0796  -11.2832 C   0  0  0  0  0  0
   13.3989   -9.8991  -10.7805 C   0  0  0  0  0  0
   12.1062   -9.8719  -10.2785 C   0  0  0  0  0  0
   11.3265  -11.0062  -10.3006 C   0  0  0  0  0  0
   11.8428  -12.1787  -10.7986 C   0  0  0  0  0  0
   17.2773  -11.7467  -12.5789 N   0  0  0  0  0  0
   15.2530  -11.0424  -11.7792 N   0  0  0  0  0  0
   15.5009  -13.1621  -12.6315 O   0  0  0  0  0  0
   20.0975  -11.6305  -12.0874 O   0  0  0  0  0  0
  2 10  2  0  0  0
  2  6  1  0  0  0
  3  4  1  0  0  0
  3  1  1  0  0  0
  4 11  1  0  0  0
  5 11  1  0  0  0
  5 12  1  0  0  0
  6  7  2  0  0  0
  7  8  1  0  0  0
  9  8  2  0  0  0
 10  9  1  0  0  0
 12  6  1  0  0  0
 13  5  2  0  0  0
 14  3  1  0  0  0
M  END
>  <CHROM.1>
-178.61400085,178.36798876,0.77893858,15.74073934,-11.73925132,-11.94367431
0.30574956,-0.21366508,-2.67984481

>  <Name>
ligand.pdb

>  <RI>
3.29373e+07

>  <Rbt.Current_Directory>
/home/v/Downloads/rDock_2013.1_src/bin

>  <Rbt.Executable>
rbdock ($Id: //depot/dev/client3/rdock/2013.1/src/exe/rbdock.cxx#4 $)

>  <Rbt.Library>
libRbt.so (2013.1, Build901 2013/11/27)

>  <Rbt.Parameter_File>
/home/v/Downloads/rDock_2013.1_src/data/scripts/dock_solv.prm

>  <Rbt.Receptor>
/home/v/Desktop/r.prm

>  <SCORE>
7.4925

>  <SCORE.INTER>
8.4

>  <SCORE.INTER.CONST>
1

>  <SCORE.INTER.POLAR>
0

>  <SCORE.INTER.ROT>
3

>  <SCORE.INTER.SOLV>
0

>  <SCORE.INTER.VDW>
0

>  <SCORE.INTER.norm>
0.6

>  <SCORE.INTRA>
-0.907501

>  <SCORE.INTRA.DIHEDRAL>
-1.6121

>  <SCORE.INTRA.DIHEDRAL.0>
1.6411

>  <SCORE.INTRA.POLAR>
0

>  <SCORE.INTRA.POLAR.0>
0

>  <SCORE.INTRA.REPUL>
0

>  <SCORE.INTRA.REPUL.0>
0

>  <SCORE.INTRA.SOLV>
-0.295871

>  <SCORE.INTRA.SOLV.lig_0>
-16.0602

>  <SCORE.INTRA.VDW>
0.0464863

>  <SCORE.INTRA.VDW.0>
-0.639572

>  <SCORE.INTRA.norm>
-0.0648215

>  <SCORE.RESTR>
0

>  <SCORE.RESTR.CAVITY>
0

>  <SCORE.RESTR.norm>
0

>  <SCORE.SYSTEM>
0

>  <SCORE.SYSTEM.CONST>
0

>  <SCORE.SYSTEM.DIHEDRAL>
0

>  <SCORE.SYSTEM.SOLV>
0

>  <SCORE.SYSTEM.norm>
0

>  <SCORE.heavy>
14

>  <SCORE.norm>
0.535179

$$$$
ligand.pdb
  rDOCK(R)          3D
libRbt.so/2013.1/901 2013/11/27
 14 14  0  0  0  0  0  0  0  0999 V2000
   11.9574  -11.6258   -7.5894 C   0  0  0  0  0  0
   10.0425   -6.6439  -13.4979 C   0  0  0  0  0  0
   11.6456  -10.1779   -7.9318 C   0  0  0  0  0  0
   11.4258   -9.9509   -9.4271 C   0  0  0  0  0  0
   10.9381   -8.1319  -11.0066 C   0  0  0  0  0  0
   10.2357   -6.0647  -12.2492 C   0  0  0  0  0  0
   10.0358   -4.6999  -12.0986 C   0  0  0  0  0  0
    9.6337   -3.9306  -13.1804 C   0  0  0  0  0  0
    9.4574   -4.5073  -14.4179 C   0  0  0  0  0  0
    9.6553   -5.8585  -14.5747 C   0  0  0  0  0  0
   11.1490   -8.5597   -9.7415 N   0  0  0  0  0  0
   10.6440   -6.7947  -11.1066 N   0  0  0  0  0  0
   11.0154   -8.8850  -11.9861 O   0  0  0  0  0  0
   10.4880   -9.7501   -7.2262 O   0  0  0  0  0  0
  2 10  2  0  0  0
  2  6  1  0  0  0
  3  4  1  0  0  0
  3  1  1  0  0  0
  4 11  1  0  0  0
  5 11  1  0  0  0
  5 12  1  0  0  0
  6  7  2  0  0  0
  7  8  1  0  0  0
  9  8  2  0  0  0
 10  9  1  0  0  0
 12  6  1  0  0  0
 13  5  2  0  0  0
 14  3  1  0  0  0
M  END
>  <CHROM.1>
-179.12324769,179.23689676,1.24784143,10.62140954,-7.65870598,-11.03821474
-0.74164706,1.28419565,-1.61052650

>  <Name>
ligand.pdb

>  <RI>
3.29373e+07

>  <Rbt.Current_Directory>
/home/v/Downloads/rDock_2013.1_src/bin

>  <Rbt.Executable>
rbdock ($Id: //depot/dev/client3/rdock/2013.1/src/exe/rbdock.cxx#4 $)

>  <Rbt.Library>
libRbt.so (2013.1, Build901 2013/11/27)

>  <Rbt.Parameter_File>
/home/v/Downloads/rDock_2013.1_src/data/scripts/dock_solv.prm

>  <Rbt.Receptor>
/home/v/Desktop/r.prm

>  <SCORE>
7.4925

>  <SCORE.INTER>
8.4

>  <SCORE.INTER.CONST>
1

>  <SCORE.INTER.POLAR>
0

>  <SCORE.INTER.ROT>
3

>  <SCORE.INTER.SOLV>
0

>  <SCORE.INTER.VDW>
0

>  <SCORE.INTER.norm>
0.6

>  <SCORE.INTRA>
-0.907501

>  <SCORE.INTRA.DIHEDRAL>
-1.61594

>  <SCORE.INTRA.DIHEDRAL.0>
1.6411

>  <SCORE.INTRA.POLAR>
0

>  <SCORE.INTRA.POLAR.0>
0

>  <SCORE.INTRA.REPUL>
0

>  <SCORE.INTRA.REPUL.0>
0

>  <SCORE.INTRA.SOLV>
-0.29252

>  <SCORE.INTRA.SOLV.lig_0>
-16.0602

>  <SCORE.INTRA.VDW>
0.0467274

>  <SCORE.INTRA.VDW.0>
-0.639572

>  <SCORE.INTRA.norm>
-0.0648215

>  <SCORE.RESTR>
0

>  <SCORE.RESTR.CAVITY>
0

>  <SCORE.RESTR.norm>
0

>  <SCORE.SYSTEM>
0

>  <SCORE.SYSTEM.CONST>
0

>  <SCORE.SYSTEM.DIHEDRAL>
0

>  <SCORE.SYSTEM.SOLV>
0

>  <SCORE.SYSTEM.norm>
0

>  <SCORE.heavy>
14

>  <SCORE.norm>
0.535179

$$$$
ligand.pdb
  rDOCK(R)          3D
libRbt.so/2013.1/901 2013/11/27
 14 14  0  0  0  0  0  0  0  0999 V2000
    9.6427  -11.7207   -9.9964 C   0  0  0  0  0  0
   17.2980  -13.7250  -10.8779 C   0  0  0  0  0  0
   10.9514  -11.3352  -10.6668 C   0  0  0  0  0  0
   12.1172  -12.2389  -10.2670 C   0  0  0  0  0  0
   14.5277  -12.4980  -10.6723 C   0  0  0  0  0  0
   16.9005  -12.5450  -11.4958 C   0  0  0  0  0  0
   17.8208  -11.8354  -12.2538 C   0  0  0  0  0  0
   19.1157  -12.3098  -12.4021 C   0  0  0  0  0  0
   19.5076  -13.4718  -11.7764 C   0  0  0  0  0  0
   18.6015  -14.1790  -11.0225 C   0  0  0  0  0  0
   13.3669  -11.8404  -10.8919 N   0  0  0  0  0  0
   15.5946  -12.0090  -11.3845 N   0  0  0  0  0  0
   14.6151  -13.4513   -9.8874 O   0  0  0  0  0  0
   10.8031  -11.3733  -12.0802 O   0  0  0  0  0  0
  2 10  2  0  0  0
  2  6  1  0  0  0
  3  4  1  0  0  0
  3  1  1  0  0  0
  4 11  1  0  0  0
  5 11  1  0  0  0
  5 12  1  0  0  0
  6  7  2  0  0  0
  7  8  1  0  0  0
  9  8  2  0  0  0
 10  9  1  0  0  0
 12  6  1  0  0  0
 13  5  2  0  0  0
 14  3  1  0  0  0
M  END
>  <CHROM.1>
-178.70622295,179.68025535,1.17425303,14.90271933,-12.44968341,-11.09963052
3.10767918,0.21638896,-0.81410784

>  <Name>
ligand.pdb

>  <RI>
3.29373e+07

>  <Rbt.Current_Directory>
/home/v/Downloads/rDock_2013.1_src/bin

>  <Rbt.Executable>
rbdock ($Id: //depot/dev/client3/rdock/2013.1/src/exe/rbdock.cxx#4 $)

>  <Rbt.Library>
libRbt.so (2013.1, Build901 2013/11/27)

>  <Rbt.Parameter_File>
/home/v/Downloads/rDock_2013.1_src/data/scripts/dock_solv.prm

>  <Rbt.Receptor>
/home/v/Desktop/r.prm

>  <SCORE>
7.4921

>  <SCORE.INTER>
8.4

>  <SCORE.INTER.CONST>
1

>  <SCORE.INTER.POLAR>
0

>  <SCORE.INTER.ROT>
3

>  <SCORE.INTER.SOLV>
0

>  <SCORE.INTER.VDW>
0

>  <SCORE.INTER.norm>
0.6

>  <SCORE.INTRA>
-0.907904

>  <SCORE.INTRA.DIHEDRAL>
-1.61317

>  <SCORE.INTRA.DIHEDRAL.0>
1.6411

>  <SCORE.INTRA.POLAR>
0

>  <SCORE.INTRA.POLAR.0>
0

>  <SCORE.INTRA.REPUL>
0

>  <SCORE.INTRA.REPUL.0>
0

>  <SCORE.INTRA.SOLV>
-0.293785

>  <SCORE.INTRA.SOLV.lig_0>
-16.0602

>  <SCORE.INTRA.VDW>
0.0455728

>  <SCORE.INTRA.VDW.0>
-0.639572

>  <SCORE.INTRA.norm>
-0.0648503

>  <SCORE.RESTR>
0

>  <SCORE.RESTR.CAVITY>
0

>  <SCORE.RESTR.norm>
0

>  <SCORE.SYSTEM>
0

>  <SCORE.SYSTEM.CONST>
0

>  <SCORE.SYSTEM.DIHEDRAL>
0

>  <SCORE.SYSTEM.SOLV>
0

>  <SCORE.SYSTEM.norm>
0

>  <SCORE.heavy>
14

>  <SCORE.norm>
0.53515

$$$$
ligand.pdb
  rDOCK(R)          3D
libRbt.so/2013.1/901 2013/11/27
 14 14  0  0  0  0  0  0  0  0999 V2000
   19.4053  -10.9631   -6.0607 C   0  0  0  0  0  0
   12.0726   -8.6449   -8.1272 C   0  0  0  0  0  0
   18.6135   -9.9846   -6.9130 C   0  0  0  0  0  0
   17.1032  -10.2018   -6.8261 C   0  0  0  0  0  0
   15.0130   -9.3113   -7.7641 C   0  0  0  0  0  0
   13.1219   -8.0003   -8.7717 C   0  0  0  0  0  0
   12.8395   -6.9832   -9.6724 C   0  0  0  0  0  0
   11.5256   -6.6085   -9.9115 C   0  0  0  0  0  0
   10.4899   -7.2600   -9.2807 C   0  0  0  0  0  0
   10.7622   -8.2696   -8.3885 C   0  0  0  0  0  0
   16.3614   -9.2799   -7.6691 N   0  0  0  0  0  0
   14.4830   -8.3346   -8.5702 N   0  0  0  0  0  0
   14.3236  -10.1573   -7.1798 O   0  0  0  0  0  0
   18.9098   -8.6500   -6.5229 O   0  0  0  0  0  0
  2 10  2  0  0  0
  2  6  1  0  0  0
  3  4  1  0  0  0
  3  1  1  0  0  0
  4 11  1  0  0  0
  5 11  1  0  0  0
  5 12  1  0  0  0
  6  7  2  0  0  0
  7  8  1  0  0  0
  9  8  2  0  0  0
 10  9  1  0  0  0
 12  6  1  0  0  0
 13  5  2  0  0  0
 14  3  1  0  0  0
M  END
>  <CHROM.1>
-178.67851821,178.75785676,0.91084374,14.78337102,-8.81310456,-7.91267977
0.45319955,0.12107283,2.58254005

>  <Name>
ligand.pdb

>  <RI>
3.29373e+07

>  <Rbt.Current_Directory>
/home/v/Downloads/rDock_2013.1_src/bin

>  <Rbt.Executable>
rbdock ($Id: //depot/dev/client3/rdock/2013.1/src/exe/rbdock.cxx#4 $)

>  <Rbt.Library>
libRbt.so (2013.1, Build901 2013/11/27)

>  <Rbt.Parameter_File>
/home/v/Downloads/rDock_2013.1_src/data/scripts/dock_solv.prm

>  <Rbt.Receptor>
/home/v/Desktop/r.prm

>  <SCORE>
7.4922

>  <SCORE.INTER>
8.4

>  <SCORE.INTER.CONST>
1

>  <SCORE.INTER.POLAR>
0

>  <SCORE.INTER.ROT>
3

>  <SCORE.INTER.SOLV>
0

>  <SCORE.INTER.VDW>
0

>  <SCORE.INTER.norm>
0.6

>  <SCORE.INTRA>
-0.907796

>  <SCORE.INTRA.DIHEDRAL>
-1.6131

>  <SCORE.INTRA.DIHEDRAL.0>
1.6411

>  <SCORE.INTRA.POLAR>
0

>  <SCORE.INTRA.POLAR.0>
0

>  <SCORE.INTRA.REPUL>
0

>  <SCORE.INTRA.REPUL.0>
0

>  <SCORE.INTRA.SOLV>
-0.295102

>  <SCORE.INTRA.SOLV.lig_0>
-16.0602

>  <SCORE.INTRA.VDW>
0.046307

>  <SCORE.INTRA.VDW.0>
-0.639572

>  <SCORE.INTRA.norm>
-0.0648426

>  <SCORE.RESTR>
0

>  <SCORE.RESTR.CAVITY>
0

>  <SCORE.RESTR.norm>
0

>  <SCORE.SYSTEM>
0

>  <SCORE.SYSTEM.CONST>
0

>  <SCORE.SYSTEM.DIHEDRAL>
0

>  <SCORE.SYSTEM.SOLV>
0

>  <SCORE.SYSTEM.norm>
0

>  <SCORE.heavy>
14

>  <SCORE.norm>
0.535157

$$$$
ligand.pdb
  rDOCK(R)          3D
libRbt.so/2013.1/901 2013/11/27
 14 14  0  0  0  0  0  0  0  0999 V2000
    9.1451   -9.1261   -8.7947 C   0  0  0  0  0  0
   16.4095   -8.7981   -5.5495 C   0  0  0  0  0  0
   10.6247   -9.3609   -9.0525 C   0  0  0  0  0  0
   11.5062   -8.9862   -7.8616 C   0  0  0  0  0  0
   13.8787   -8.8999   -7.2248 C   0  0  0  0  0  0
   16.3550   -9.1584   -6.8908 C   0  0  0  0  0  0
   17.5309   -9.4826   -7.5523 C   0  0  0  0  0  0
   18.7410   -9.4601   -6.8746 C   0  0  0  0  0  0
   18.7905   -9.0890   -5.5499 C   0  0  0  0  0  0
   17.6297   -8.7650   -4.8889 C   0  0  0  0  0  0
   12.9191   -9.1896   -8.1322 N   0  0  0  0  0  0
   15.1527   -9.2021   -7.6376 N   0  0  0  0  0  0
   13.6235   -8.3963   -6.1231 O   0  0  0  0  0  0
   10.8503  -10.7257   -9.3806 O   0  0  0  0  0  0
  2 10  2  0  0  0
  2  6  1  0  0  0
  3  4  1  0  0  0
  3  1  1  0  0  0
  4 11  1  0  0  0
  5 11  1  0  0  0
  5 12  1  0  0  0
  6  7  2  0  0  0
  7  8  1  0  0  0
  9  8  2  0  0  0
 10  9  1  0  0  0
 12  6  1  0  0  0
 13  5  2  0  0  0
 14  3  1  0  0  0
M  END
>  <CHROM.1>
-178.80371190,178.81268626,0.93836210,14.35657941,-9.20021822,-7.29463112
2.81403933,0.12715145,-2.08028821

>  <Name>
ligand.pdb

>  <RI>
3.29373e+07

>  <Rbt.Current_Directory>
/home/v/Downloads/rDock_2013.1_src/bin

>  <Rbt.Executable>
rbdock ($Id: //depot/dev/client3/rdock/2013.1/src/exe/rbdock.cxx#4 $)

>  <Rbt.Library>
libRbt.so (2013.1, Build901 2013/11/27)

>  <Rbt.Parameter_File>
/home/v/Downloads/rDock_2013.1_src/data/scripts/dock_solv.prm

>  <Rbt.Receptor>
/home/v/Desktop/r.prm

>  <SCORE>
7.4922

>  <SCORE.INTER>
8.4

>  <SCORE.INTER.CONST>
1

>  <SCORE.INTER.POLAR>
0

>  <SCORE.INTER.ROT>
3

>  <SCORE.INTER.SOLV>
0

>  <SCORE.INTER.VDW>
0

>  <SCORE.INTER.norm>
0.6

>  <SCORE.INTRA>
-0.907803

>  <SCORE.INTRA.DIHEDRAL>
-1.61432

>  <SCORE.INTRA.DIHEDRAL.0>
1.6411

>  <SCORE.INTRA.POLAR>
0

>  <SCORE.INTRA.POLAR.0>
0

>  <SCORE.INTRA.REPUL>
0

>  <SCORE.INTRA.REPUL.0>
0

>  <SCORE.INTRA.SOLV>
-0.294475

>  <SCORE.INTRA.SOLV.lig_0>
-16.0602

>  <SCORE.INTRA.VDW>
0.0465933

>  <SCORE.INTRA.VDW.0>
-0.639572

>  <SCORE.INTRA.norm>
-0.0648431

>  <SCORE.RESTR>
0

>  <SCORE.RESTR.CAVITY>
0

>  <SCORE.RESTR.norm>
0

>  <SCORE.SYSTEM>
0

>  <SCORE.SYSTEM.CONST>
0

>  <SCORE.SYSTEM.DIHEDRAL>
0

>  <SCORE.SYSTEM.SOLV>
0

>  <SCORE.SYSTEM.norm>
0

>  <SCORE.heavy>
14

>  <SCORE.norm>
0.535157

$$$$
ligand.pdb
  rDOCK(R)          3D
libRbt.so/2013.1/901 2013/11/27
 14 14  0  0  0  0  0  0  0  0999 V2000
   12.2137   -9.0014  -10.9364 C   0  0  0  0  0  0
   19.9079  -10.3489   -9.3906 C   0  0  0  0  0  0
   13.1799   -9.7455  -10.0289 C   0  0  0  0  0  0
   14.6429   -9.5526  -10.4266 C   0  0  0  0  0  0
   16.8928  -10.2700   -9.7449 C   0  0  0  0  0  0
   18.9957  -11.0635   -8.6229 C   0  0  0  0  0  0
   19.4647  -11.9003   -7.6203 C   0  0  0  0  0  0
   20.8269  -12.0071   -7.3817 C   0  0  0  0  0  0
   21.7262  -11.3076   -8.1544 C   0  0  0  0  0  0
   21.2687  -10.4781   -9.1504 C   0  0  0  0  0  0
   15.5520  -10.2984   -9.5733 N   0  0  0  0  0  0
   17.5944  -10.9970   -8.8154 N   0  0  0  0  0  0
   17.4331   -9.6482  -10.6690 O   0  0  0  0  0  0
   13.0087   -9.3197   -8.6834 O   0  0  0  0  0  0
  2 10  2  0  0  0
  2  6  1  0  0  0
  3  4  1  0  0  0
  3  1  1  0  0  0
  4 11  1  0  0  0
  5 11  1  0  0  0
  5 12  1  0  0  0
  6  7  2  0  0  0
  7  8  1  0  0  0
  9  8  2  0  0  0
 10  9  1  0  0  0
 12  6  1  0  0  0
 13  5  2  0  0  0
 14  3  1  0  0  0
M  END
>  <CHROM.1>
-178.42509558,-179.86986028,0.53869846,17.18779225,-10.37499384,-9.26683973
-2.82731220,-0.10122433,2.08434442

>  <Name>
ligand.pdb

>  <RI>
3.29373e+07

>  <Rbt.Current_Directory>
/home/v/Downloads/rDock_2013.1_src/bin

>  <Rbt.Executable>
rbdock ($Id: //depot/dev/client3/rdock/2013.1/src/exe/rbdock.cxx#4 $)

>  <Rbt.Library>
libRbt.so (2013.1, Build901 2013/11/27)

>  <Rbt.Parameter_File>
/home/v/Downloads/rDock_2013.1_src/data/scripts/dock_solv.prm

>  <Rbt.Receptor>
/home/v/Desktop/r.prm

>  <SCORE>
7.49226

>  <SCORE.INTER>
8.4

>  <SCORE.INTER.CONST>
1

>  <SCORE.INTER.POLAR>
0

>  <SCORE.INTER.ROT>
3

>  <SCORE.INTER.SOLV>
0

>  <SCORE.INTER.VDW>
0

>  <SCORE.INTER.norm>
0.6

>  <SCORE.INTRA>
-0.907737

>  <SCORE.INTRA.DIHEDRAL>
-1.61303

>  <SCORE.INTRA.DIHEDRAL.0>
1.6411

>  <SCORE.INTRA.POLAR>
0

>  <SCORE.INTRA.POLAR.0>
0

>  <SCORE.INTRA.REPUL>
0

>  <SCORE.INTRA.REPUL.0>
0

>  <SCORE.INTRA.SOLV>
-0.294411

>  <SCORE.INTRA.SOLV.lig_0>
-16.0602

>  <SCORE.INTRA.VDW>
0.0459848

>  <SCORE.INTRA.VDW.0>
-0.639572

>  <SCORE.INTRA.norm>
-0.0648383

>  <SCORE.RESTR>
0

>  <SCORE.RESTR.CAVITY>
0

>  <SCORE.RESTR.norm>
0

>  <SCORE.SYSTEM>
0

>  <SCORE.SYSTEM.CONST>
0

>  <SCORE.SYSTEM.DIHEDRAL>
0

>  <SCORE.SYSTEM.SOLV>
0

>  <SCORE.SYSTEM.norm>
0

>  <SCORE.heavy>
14

>  <SCORE.norm>
0.535162

$$$$
ligand.pdb
  rDOCK(R)          3D
libRbt.so/2013.1/901 2013/11/27
 14 14  0  0  0  0  0  0  0  0999 V2000
   11.6413   -3.5739  -10.1464 C   0  0  0  0  0  0
   14.0684  -10.7051  -12.7273 C   0  0  0  0  0  0
   11.8497   -5.0264   -9.7495 C   0  0  0  0  0  0
   12.3164   -5.9029  -10.9112 C   0  0  0  0  0  0
   12.8890   -8.2436  -11.3962 C   0  0  0  0  0  0
   13.5709  -10.6611  -11.4301 C   0  0  0  0  0  0
   13.5839  -11.8161  -10.6614 C   0  0  0  0  0  0
   14.1016  -12.9935  -11.1806 C   0  0  0  0  0  0
   14.5802  -13.0345  -12.4707 C   0  0  0  0  0  0
   14.5689  -11.8944  -13.2386 C   0  0  0  0  0  0
   12.4785   -7.2942  -10.5254 N   0  0  0  0  0  0
   13.0308   -9.4916  -10.8422 N   0  0  0  0  0  0
   13.1064   -8.0024  -12.5908 O   0  0  0  0  0  0
   12.8022   -5.1110   -8.6975 O   0  0  0  0  0  0
  2 10  2  0  0  0
  2  6  1  0  0  0
  3  4  1  0  0  0
  3  1  1  0  0  0
  4 11  1  0  0  0
  5 11  1  0  0  0
  5 12  1  0  0  0
  6  7  2  0  0  0
  7  8  1  0  0  0
  9  8  2  0  0  0
 10  9  1  0  0  0
 12  6  1  0  0  0
 13  5  2  0  0  0
 14  3  1  0  0  0
M  END
>  <CHROM.1>
-178.53478385,-179.73077711,0.36321983,13.15190402,-8.68609762,-11.14664491
-3.02588922,-1.30583400,1.97737246

>  <Name>
ligand.pdb

>  <RI>
3.29373e+07

>  <Rbt.Current_Directory>
/home/v/Downloads/rDock_2013.1_src/bin

>  <Rbt.Executable>
rbdock ($Id: //depot/dev/client3/rdock/2013.1/src/exe/rbdock.cxx#4 $)

>  <Rbt.Library>
libRbt.so (2013.1, Build901 2013/11/27)

>  <Rbt.Parameter_File>
/home/v/Downloads/rDock_2013.1_src/data/scripts/dock_solv.prm

>  <Rbt.Receptor>
/home/v/Desktop/r.prm

>  <SCORE>
7.49231

>  <SCORE.INTER>
8.4

>  <SCORE.INTER.CONST>
1

>  <SCORE.INTER.POLAR>
0

>  <SCORE.INTER.ROT>
3

>  <SCORE.INTER.SOLV>
0

>  <SCORE.INTER.VDW>
0

>  <SCORE.INTER.norm>
0.6

>  <SCORE.INTRA>
-0.907694

>  <SCORE.INTRA.DIHEDRAL>
-1.61481

>  <SCORE.INTRA.DIHEDRAL.0>
1.6411

>  <SCORE.INTRA.POLAR>
0

>  <SCORE.INTRA.POLAR.0>
0

>  <SCORE.INTRA.REPUL>
0

>  <SCORE.INTRA.REPUL.0>
0

>  <SCORE.INTRA.SOLV>
-0.293731

>  <SCORE.INTRA.SOLV.lig_0>
-16.0602

>  <SCORE.INTRA.VDW>
0.0465755

>  <SCORE.INTRA.VDW.0>
-0.639572

>  <SCORE.INTRA.norm>
-0.0648353

>  <SCORE.RESTR>
0

>  <SCORE.RESTR.CAVITY>
0

>  <SCORE.RESTR.norm>
0

>  <SCORE.SYSTEM>
0

>  <SCORE.SYSTEM.CONST>
0

>  <SCORE.SYSTEM.DIHEDRAL>
0

>  <SCORE.SYSTEM.SOLV>
0

>  <SCORE.SYSTEM.norm>
0

>  <SCORE.heavy>
14

>  <SCORE.norm>
0.535165

$$$$
ligand.pdb
  rDOCK(R)          3D
libRbt.so/2013.1/901 2013/11/27
 14 14  0  0  0  0  0  0  0  0999 V2000
   11.6008  -14.0550  -12.6831 C   0  0  0  0  0  0
   10.3018   -6.2940  -11.4603 C   0  0  0  0  0  0
   12.0603  -12.6528  -13.0484 C   0  0  0  0  0  0
   11.2082  -11.5581  -12.4072 C   0  0  0  0  0  0
   11.0158   -9.1083  -12.3504 C   0  0  0  0  0  0
   11.2802   -6.6106  -12.3954 C   0  0  0  0  0  0
   11.9935   -5.5859  -13.0010 C   0  0  0  0  0  0
   11.7396   -4.2650  -12.6626 C   0  0  0  0  0  0
   10.7597   -3.9569  -11.7461 C   0  0  0  0  0  0
   10.0480   -4.9668  -11.1435 C   0  0  0  0  0  0
   11.6359  -10.2247  -12.7945 N   0  0  0  0  0  0
   11.5877   -7.9375  -12.7826 N   0  0  0  0  0  0
   10.0133   -9.1468  -11.6252 O   0  0  0  0  0  0
   13.4152  -12.4686  -12.6594 O   0  0  0  0  0  0
  2 10  2  0  0  0
  2  6  1  0  0  0
  3  4  1  0  0  0
  3  1  1  0  0  0
  4 11  1  0  0  0
  5 11  1  0  0  0
  5 12  1  0  0  0
  6  7  2  0  0  0
  7  8  1  0  0  0
  9  8  2  0  0  0
 10  9  1  0  0  0
 12  6  1  0  0  0
 13  5  2  0  0  0
 14  3  1  0  0  0
M  END
>  <CHROM.1>
-178.40795942,179.55445066,0.44153527,11.35174615,-8.64789531,-12.34206460
1.41458402,-0.51337544,-3.13229249

>  <Name>
ligand.pdb

>  <RI>
3.29373e+07

>  <Rbt.Current_Directory>
/home/v/Downloads/rDock_2013.1_src/bin

>  <Rbt.Executable>
rbdock ($Id: //depot/dev/client3/rdock/2013.1/src/exe/rbdock.cxx#4 $)

>  <Rbt.Library>
libRbt.so (2013.1, Build901 2013/11/27)

>  <Rbt.Parameter_File>
/home/v/Downloads/rDock_2013.1_src/data/scripts/dock_solv.prm

>  <Rbt.Receptor>
/home/v/Desktop/r.prm

>  <SCORE>
7.49215

>  <SCORE.INTER>
8.4

>  <SCORE.INTER.CONST>
1

>  <SCORE.INTER.POLAR>
0

>  <SCORE.INTER.ROT>
3

>  <SCORE.INTER.SOLV>
0

>  <SCORE.INTER.VDW>
0

>  <SCORE.INTER.norm>
0.6

>  <SCORE.INTRA>
-0.907847

>  <SCORE.INTRA.DIHEDRAL>
-1.61298

>  <SCORE.INTRA.DIHEDRAL.0>
1.6411

>  <SCORE.INTRA.POLAR>
0

>  <SCORE.INTRA.POLAR.0>
0

>  <SCORE.INTRA.REPUL>
0

>  <SCORE.INTRA.REPUL.0>
0

>  <SCORE.INTRA.SOLV>
-0.295272

>  <SCORE.INTRA.SOLV.lig_0>
-16.0602

>  <SCORE.INTRA.VDW>
0.0462803

>  <SCORE.INTRA.VDW.0>
-0.639572

>  <SCORE.INTRA.norm>
-0.0648462

>  <SCORE.RESTR>
0

>  <SCORE.RESTR.CAVITY>
0

>  <SCORE.RESTR.norm>
0

>  <SCORE.SYSTEM>
0

>  <SCORE.SYSTEM.CONST>
0

>  <SCORE.SYSTEM.DIHEDRAL>
0

>  <SCORE.SYSTEM.SOLV>
0

>  <SCORE.SYSTEM.norm>
0

>  <SCORE.heavy>
14

>  <SCORE.norm>
0.535154

$$$$
ligand.pdb
  rDOCK(R)          3D
libRbt.so/2013.1/901 2013/11/27
 14 14  0  0  0  0  0  0  0  0999 V2000
   11.7683   -5.6442   -6.3722 C   0  0  0  0  0  0
   17.0455   -9.3453  -11.0475 C   0  0  0  0  0  0
   13.1940   -6.1652   -6.4540 C   0  0  0  0  0  0
   13.4926   -6.8867   -7.7678 C   0  0  0  0  0  0
   15.3224   -8.0883   -8.8857 C   0  0  0  0  0  0
   17.4733   -9.0486   -9.7587 C   0  0  0  0  0  0
   18.7754   -9.3560   -9.3910 C   0  0  0  0  0  0
   19.6395   -9.9383  -10.3065 C   0  0  0  0  0  0
   19.2060  -10.2427  -11.5771 C   0  0  0  0  0  0
   17.9168   -9.9425  -11.9478 C   0  0  0  0  0  0
   14.8504   -7.4009   -7.8214 N   0  0  0  0  0  0
   16.6414   -8.4538   -8.7793 N   0  0  0  0  0  0
   14.6170   -8.3688   -9.8636 O   0  0  0  0  0  0
   14.1133   -5.0920   -6.2989 O   0  0  0  0  0  0
  2 10  2  0  0  0
  2  6  1  0  0  0
  3  4  1  0  0  0
  3  1  1  0  0  0
  4 11  1  0  0  0
  5 11  1  0  0  0
  5 12  1  0  0  0
  6  7  2  0  0  0
  7  8  1  0  0  0
  9  8  2  0  0  0
 10  9  1  0  0  0
 12  6  1  0  0  0
 13  5  2  0  0  0
 14  3  1  0  0  0
M  END
>  <CHROM.1>
-178.90932963,179.13558931,0.95265393,15.88818414,-8.05732118,-8.94500192
2.36008125,-0.19857088,1.01748870

>  <Name>
ligand.pdb

>  <RI>
3.29373e+07

>  <Rbt.Current_Directory>
/home/v/Downloads/rDock_2013.1_src/bin

>  <Rbt.Executable>
rbdock ($Id: //depot/dev/client3/rdock/2013.1/src/exe/rbdock.cxx#4 $)

>  <Rbt.Library>
libRbt.so (2013.1, Build901 2013/11/27)

>  <Rbt.Parameter_File>
/home/v/Downloads/rDock_2013.1_src/data/scripts/dock_solv.prm

>  <Rbt.Receptor>
/home/v/Desktop/r.prm

>  <SCORE>
7.49212

>  <SCORE.INTER>
8.4

>  <SCORE.INTER.CONST>
1

>  <SCORE.INTER.POLAR>
0

>  <SCORE.INTER.ROT>
3

>  <SCORE.INTER.SOLV>
0

>  <SCORE.INTER.VDW>
0

>  <SCORE.INTER.norm>
0.6

>  <SCORE.INTRA>
-0.907883

>  <SCORE.INTRA.DIHEDRAL>
-1.61575

>  <SCORE.INTRA.DIHEDRAL.0>
1.6411

>  <SCORE.INTRA.POLAR>
0

>  <SCORE.INTRA.POLAR.0>
0

>  <SCORE.INTRA.REPUL>
0

>  <SCORE.INTRA.REPUL.0>
0

>  <SCORE.INTRA.SOLV>
-0.293594

>  <SCORE.INTRA.SOLV.lig_0>
-16.0602

>  <SCORE.INTRA.VDW>
0.0467883

>  <SCORE.INTRA.VDW.0>
-0.639572

>  <SCORE.INTRA.norm>
-0.0648488

>  <SCORE.RESTR>
0

>  <SCORE.RESTR.CAVITY>
0

>  <SCORE.RESTR.norm>
0

>  <SCORE.SYSTEM>
0

>  <SCORE.SYSTEM.CONST>
0

>  <SCORE.SYSTEM.DIHEDRAL>
0

>  <SCORE.SYSTEM.SOLV>
0

>  <SCORE.SYSTEM.norm>
0

>  <SCORE.heavy>
14

>  <SCORE.norm>
0.535151

$$$$
ligand.pdb
  rDOCK(R)          3D
libRbt.so/2013.1/901 2013/11/27
 14 14  0  0  0  0  0  0  0  0999 V2000
   16.4296   -6.7358  -12.8330 C   0  0  0  0  0  0
   18.0000  -14.3495  -11.1108 C   0  0  0  0  0  0
   17.4145   -7.6706  -12.1497 C   0  0  0  0  0  0
   16.9621   -9.1303  -12.1640 C   0  0  0  0  0  0
   17.6946  -11.3395  -11.3737 C   0  0  0  0  0  0
   18.8764  -13.4097  -10.5809 C   0  0  0  0  0  0
   19.9758  -13.8443   -9.8545 C   0  0  0  0  0  0
   20.2007  -15.2012   -9.6750 C   0  0  0  0  0  0
   19.3217  -16.1269  -10.1903 C   0  0  0  0  0  0
   18.2296  -15.7034  -10.9096 C   0  0  0  0  0  0
   17.8942  -10.0061  -11.4748 N   0  0  0  0  0  0
   18.7034  -12.0121  -10.7299 N   0  0  0  0  0  0
   16.6820  -11.8970  -11.8169 O   0  0  0  0  0  0
   18.6876   -7.5771  -12.7756 O   0  0  0  0  0  0
  2 10  2  0  0  0
  2  6  1  0  0  0
  3  4  1  0  0  0
  3  1  1  0  0  0
  4 11  1  0  0  0
  5 11  1  0  0  0
  5 12  1  0  0  0
  6  7  2  0  0  0
  7  8  1  0  0  0
  9  8  2  0  0  0
 10  9  1  0  0  0
 12  6  1  0  0  0
 13  5  2  0  0  0
 14  3  1  0  0  0
M  END
>  <CHROM.1>
-178.36864080,-179.58331687,0.68872097,18.17739714,-11.64060527,-11.31492598
1.82490257,-0.36836065,-0.19550513

>  <Name>
ligand.pdb

>  <RI>
3.29373e+07

>  <Rbt.Current_Directory>
/home/v/Downloads/rDock_2013.1_src/bin

>  <Rbt.Executable>
rbdock ($Id: //depot/dev/client3/rdock/2013.1/src/exe/rbdock.cxx#4 $)

>  <Rbt.Library>
libRbt.so (2013.1, Build901 2013/11/27)

>  <Rbt.Parameter_File>
/home/v/Downloads/rDock_2013.1_src/data/scripts/dock_solv.prm

>  <Rbt.Receptor>
/home/v/Desktop/r.prm

>  <SCORE>
7.49249

>  <SCORE.INTER>
8.4

>  <SCORE.INTER.CONST>
1

>  <SCORE.INTER.POLAR>
0

>  <SCORE.INTER.ROT>
3

>  <SCORE.INTER.SOLV>
0

>  <SCORE.INTER.VDW>
0

>  <SCORE.INTER.norm>
0.6

>  <SCORE.INTRA>
-0.907508

>  <SCORE.INTRA.DIHEDRAL>
-1.61166

>  <SCORE.INTRA.DIHEDRAL.0>
1.6411

>  <SCORE.INTRA.POLAR>
0

>  <SCORE.INTRA.POLAR.0>
0

>  <SCORE.INTRA.REPUL>
0

>  <SCORE.INTRA.REPUL.0>
0

>  <SCORE.INTRA.SOLV>
-0.294259

>  <SCORE.INTRA.SOLV.lig_0>
-16.0602

>  <SCORE.INTRA.VDW>
0.0454504

>  <SCORE.INTRA.VDW.0>
-0.639572

>  <SCORE.INTRA.norm>
-0.064822

>  <SCORE.RESTR>
0

>  <SCORE.RESTR.CAVITY>
0

>  <SCORE.RESTR.norm>
0

>  <SCORE.SYSTEM>
0

>  <SCORE.SYSTEM.CONST>
0

>  <SCORE.SYSTEM.DIHEDRAL>
0

>  <SCORE.SYSTEM.SOLV>
0

>  <SCORE.SYSTEM.norm>
0

>  <SCORE.heavy>
14

>  <SCORE.norm>
0.535178

$$$$
ligand.pdb
  rDOCK(R)          3D
libRbt.so/2013.1/901 2013/11/27
 14 14  0  0  0  0  0  0  0  0999 V2000
   12.1867   -6.4527  -10.0467 C   0  0  0  0  0  0
   15.3901  -13.3612  -12.3717 C   0  0  0  0  0  0
   13.3709   -7.3883   -9.8646 C   0  0  0  0  0  0
   13.2418   -8.6804  -10.6705 C   0  0  0  0  0  0
   14.4527  -10.7813  -11.0723 C   0  0  0  0  0  0
   16.0744  -12.6758  -11.3747 C   0  0  0  0  0  0
   17.2681  -13.1951  -10.8943 C   0  0  0  0  0  0
   17.7749  -14.3760  -11.4164 C   0  0  0  0  0  0
   17.0856  -15.0577  -12.3938 C   0  0  0  0  0  0
   15.9017  -14.5499  -12.8732 C   0  0  0  0  0  0
   14.3694   -9.5741  -10.4692 N   0  0  0  0  0  0
   15.6113  -11.4664  -10.8020 N   0  0  0  0  0  0
   13.5531  -11.2278  -11.7961 O   0  0  0  0  0  0
   14.5732   -6.7295  -10.2405 O   0  0  0  0  0  0
  2 10  2  0  0  0
  2  6  1  0  0  0
  3  4  1  0  0  0
  3  1  1  0  0  0
  4 11  1  0  0  0
  5 11  1  0  0  0
  5 12  1  0  0  0
  6  7  2  0  0  0
  7  8  1  0  0  0
  9  8  2  0  0  0
 10  9  1  0  0  0
 12  6  1  0  0  0
 13  5  2  0  0  0
 14  3  1  0  0  0
M  END
>  <CHROM.1>
-179.03044225,179.12228249,1.54952331,14.98712246,-10.96739840,-11.13830943
2.05425907,-0.35741593,0.43467458

>  <Name>
ligand.pdb

>  <RI>
3.29373e+07

>  <Rbt.Current_Directory>
/home/v/Downloads/rDock_2013.1_src/bin

>  <Rbt.Executable>
rbdock ($Id: //depot/dev/client3/rdock/2013.1/src/exe/rbdock.cxx#4 $)

>  <Rbt.Library>
libRbt.so (2013.1, Build901 2013/11/27)

>  <Rbt.Parameter_File>
/home/v/Downloads/rDock_2013.1_src/data/scripts/dock_solv.prm

>  <Rbt.Receptor>
/home/v/Desktop/r.prm

>  <SCORE>
7.49268

>  <SCORE.INTER>
8.4

>  <SCORE.INTER.CONST>
1

>  <SCORE.INTER.POLAR>
0

>  <SCORE.INTER.ROT>
3

>  <SCORE.INTER.SOLV>
0

>  <SCORE.INTER.VDW>
0

>  <SCORE.INTER.norm>
0.6

>  <SCORE.INTRA>
-0.907318

>  <SCORE.INTRA.DIHEDRAL>
-1.61306

>  <SCORE.INTRA.DIHEDRAL.0>
1.6411

>  <SCORE.INTRA.POLAR>
0

>  <SCORE.INTRA.POLAR.0>
0

>  <SCORE.INTRA.REPUL>
0

>  <SCORE.INTRA.REPUL.0>
0

>  <SCORE.INTRA.SOLV>
-0.293093

>  <SCORE.INTRA.SOLV.lig_0>
-16.0602

>  <SCORE.INTRA.VDW>
0.0457596

>  <SCORE.INTRA.VDW.0>
-0.639572

>  <SCORE.INTRA.norm>
-0.0648084

>  <SCORE.RESTR>
0

>  <SCORE.RESTR.CAVITY>
0

>  <SCORE.RESTR.norm>
0

>  <SCORE.SYSTEM>
0

>  <SCORE.SYSTEM.CONST>
0

>  <SCORE.SYSTEM.DIHEDRAL>
0

>  <SCORE.SYSTEM.SOLV>
0

>  <SCORE.SYSTEM.norm>
0

>  <SCORE.heavy>
14

>  <SCORE.norm>
0.535192

$$$$
ligand.pdb
  rDOCK(R)          3D
libRbt.so/2013.1/901 2013/11/27
 14 14  0  0  0  0  0  0  0  0999 V2000
   12.1768   -1.3627  -14.5232 C   0  0  0  0  0  0
   16.7864   -6.5943  -10.6785 C   0  0  0  0  0  0
   12.3502   -2.8314  -14.1716 C   0  0  0  0  0  0
   13.6331   -3.1118  -13.3900 C   0  0  0  0  0  0
   14.8705   -4.9959  -12.4098 C   0  0  0  0  0  0
   15.7109   -7.1273  -11.3795 C   0  0  0  0  0  0
   15.4787   -8.4942  -11.3246 C   0  0  0  0  0  0
   16.3036   -9.3117  -10.5663 C   0  0  0  0  0  0
   17.3755   -8.7801   -9.8854 C   0  0  0  0  0  0
   17.6125   -7.4270   -9.9366 C   0  0  0  0  0  0
   13.7980   -4.5224  -13.0832 N   0  0  0  0  0  0
   14.8322   -6.3470  -12.1695 N   0  0  0  0  0  0
   15.8071   -4.2693  -12.0530 O   0  0  0  0  0  0
   11.2386   -3.2831  -13.4091 O   0  0  0  0  0  0
  2 10  2  0  0  0
  2  6  1  0  0  0
  3  4  1  0  0  0
  3  1  1  0  0  0
  4 11  1  0  0  0
  5 11  1  0  0  0
  5 12  1  0  0  0
  6  7  2  0  0  0
  7  8  1  0  0  0
  9  8  2  0  0  0
 10  9  1  0  0  0
 12  6  1  0  0  0
 13  5  2  0  0  0
 14  3  1  0  0  0
M  END
>  <CHROM.1>
-178.90224303,179.31400216,1.14644414,14.76889365,-5.48273583,-12.13105611
-2.21752666,0.39839907,2.87614229

>  <Name>
ligand.pdb

>  <RI>
3.29373e+07

>  <Rbt.Current_Directory>
/home/v/Downloads/rDock_2013.1_src/bin

>  <Rbt.Executable>
rbdock ($Id: //depot/dev/client3/rdock/2013.1/src/exe/rbdock.cxx#4 $)

>  <Rbt.Library>
libRbt.so (2013.1, Build901 2013/11/27)

>  <Rbt.Parameter_File>
/home/v/Downloads/rDock_2013.1_src/data/scripts/dock_solv.prm

>  <Rbt.Receptor>
/home/v/Desktop/r.prm

>  <SCORE>
7.49216

>  <SCORE.INTER>
8.4

>  <SCORE.INTER.CONST>
1

>  <SCORE.INTER.POLAR>
0

>  <SCORE.INTER.ROT>
3

>  <SCORE.INTER.SOLV>
0

>  <SCORE.INTER.VDW>
0

>  <SCORE.INTER.norm>
0.6

>  <SCORE.INTRA>
-0.907842

>  <SCORE.INTRA.DIHEDRAL>
-1.61488

>  <SCORE.INTRA.DIHEDRAL.0>
1.6411

>  <SCORE.INTRA.POLAR>
0

>  <SCORE.INTRA.POLAR.0>
0

>  <SCORE.INTRA.REPUL>
0

>  <SCORE.INTRA.REPUL.0>
0

>  <SCORE.INTRA.SOLV>
-0.293398

>  <SCORE.INTRA.SOLV.lig_0>
-16.0602

>  <SCORE.INTRA.VDW>
0.0462953

>  <SCORE.INTRA.VDW.0>
-0.639572

>  <SCORE.INTRA.norm>
-0.0648458

>  <SCORE.RESTR>
0

>  <SCORE.RESTR.CAVITY>
0

>  <SCORE.RESTR.norm>
0

>  <SCORE.SYSTEM>
0

>  <SCORE.SYSTEM.CONST>
0

>  <SCORE.SYSTEM.DIHEDRAL>
0

>  <SCORE.SYSTEM.SOLV>
0

>  <SCORE.SYSTEM.norm>
0

>  <SCORE.heavy>
14

>  <SCORE.norm>
0.535154

$$$$
ligand.pdb
  rDOCK(R)          3D
libRbt.so/2013.1/901 2013/11/27
 14 14  0  0  0  0  0  0  0  0999 V2000
   19.5932   -9.4078   -5.9410 C   0  0  0  0  0  0
   13.5687   -9.5563  -11.1456 C   0  0  0  0  0  0
   19.2163   -9.2089   -7.4001 C   0  0  0  0  0  0
   17.7450   -9.5091   -7.6842 C   0  0  0  0  0  0
   16.1598   -9.5638   -9.5620 C   0  0  0  0  0  0
   14.8278   -9.2997  -11.6754 C   0  0  0  0  0  0
   14.9495   -9.0351  -13.0320 C   0  0  0  0  0  0
   13.8237   -9.0134  -13.8419 C   0  0  0  0  0  0
   12.5809   -9.2820  -13.3142 C   0  0  0  0  0  0
   12.4532   -9.5467  -11.9714 C   0  0  0  0  0  0
   17.4055   -9.3392   -9.0866 N   0  0  0  0  0  0
   16.0143   -9.3057  -10.9024 N   0  0  0  0  0  0
   15.2380   -9.9764   -8.8460 O   0  0  0  0  0  0
   19.4986   -7.8734   -7.7973 O   0  0  0  0  0  0
  2 10  2  0  0  0
  2  6  1  0  0  0
  3  4  1  0  0  0
  3  1  1  0  0  0
  4 11  1  0  0  0
  5 11  1  0  0  0
  5 12  1  0  0  0
  6  7  2  0  0  0
  7  8  1  0  0  0
  9  8  2  0  0  0
 10  9  1  0  0  0
 12  6  1  0  0  0
 13  5  2  0  0  0
 14  3  1  0  0  0
M  END
>  <CHROM.1>
-178.90965982,179.39881008,0.76846333,16.03940949,-9.27014905,-10.03588372
0.72513896,0.33380553,1.87668994

>  <Name>
ligand.pdb

>  <RI>
3.29373e+07

>  <Rbt.Current_Directory>
/home/v/Downloads/rDock_2013.1_src/bin

>  <Rbt.Executable>
rbdock ($Id: //depot/dev/client3/rdock/2013.1/src/exe/rbdock.cxx#4 $)

>  <Rbt.Library>
libRbt.so (2013.1, Build901 2013/11/27)

>  <Rbt.Parameter_File>
/home/v/Downloads/rDock_2013.1_src/data/scripts/dock_solv.prm

>  <Rbt.Receptor>
/home/v/Desktop/r.prm

>  <SCORE>
7.49202

>  <SCORE.INTER>
8.4

>  <SCORE.INTER.CONST>
1

>  <SCORE.INTER.POLAR>
0

>  <SCORE.INTER.ROT>
3

>  <SCORE.INTER.SOLV>
0

>  <SCORE.INTER.VDW>
0

>  <SCORE.INTER.norm>
0.6

>  <SCORE.INTRA>
-0.907976

>  <SCORE.INTRA.DIHEDRAL>
-1.61692

>  <SCORE.INTRA.DIHEDRAL.0>
1.6411

>  <SCORE.INTRA.POLAR>
0

>  <SCORE.INTRA.POLAR.0>
0

>  <SCORE.INTRA.REPUL>
0

>  <SCORE.INTRA.REPUL.0>
0

>  <SCORE.INTRA.SOLV>
-0.293247

>  <SCORE.INTRA.SOLV.lig_0>
-16.0602

>  <SCORE.INTRA.VDW>
0.0471073

>  <SCORE.INTRA.VDW.0>
-0.639572

>  <SCORE.INTRA.norm>
-0.0648554

>  <SCORE.RESTR>
0

>  <SCORE.RESTR.CAVITY>
0

>  <SCORE.RESTR.norm>
0

>  <SCORE.SYSTEM>
0

>  <SCORE.SYSTEM.CONST>
0

>  <SCORE.SYSTEM.DIHEDRAL>
0

>  <SCORE.SYSTEM.SOLV>
0

>  <SCORE.SYSTEM.norm>
0

>  <SCORE.heavy>
14

>  <SCORE.norm>
0.535145

$$$$
ligand.pdb
  rDOCK(R)          3D
libRbt.so/2013.1/901 2013/11/27
 14 14  0  0  0  0  0  0  0  0999 V2000
   12.8792  -10.3089  -14.5082 C   0  0  0  0  0  0
   15.8677   -9.0175   -7.2416 C   0  0  0  0  0  0
   13.9239   -9.5339  -13.7216 C   0  0  0  0  0  0
   13.8430   -9.7804  -12.2155 C   0  0  0  0  0  0
   14.9192   -9.0605  -10.1262 C   0  0  0  0  0  0
   16.3935   -8.2385   -8.2657 C   0  0  0  0  0  0
   17.4155   -7.3449   -7.9790 C   0  0  0  0  0  0
   17.9125   -7.2449   -6.6880 C   0  0  0  0  0  0
   17.3784   -8.0088   -5.6750 C   0  0  0  0  0  0
   16.3646   -8.8950   -5.9515 C   0  0  0  0  0  0
   14.8207   -9.0030  -11.4734 N   0  0  0  0  0  0
   15.9313   -8.2946   -9.6030 N   0  0  0  0  0  0
   14.1527   -9.7396   -9.4306 O   0  0  0  0  0  0
   15.2270   -9.8771  -14.1748 O   0  0  0  0  0  0
  2 10  2  0  0  0
  2  6  1  0  0  0
  3  4  1  0  0  0
  3  1  1  0  0  0
  4 11  1  0  0  0
  5 11  1  0  0  0
  5 12  1  0  0  0
  6  7  2  0  0  0
  7  8  1  0  0  0
  9  8  2  0  0  0
 10  9  1  0  0  0
 12  6  1  0  0  0
 13  5  2  0  0  0
 14  3  1  0  0  0
M  END
>  <CHROM.1>
-178.27008647,179.55141167,1.24079823,15.43742996,-8.93067392,-9.92887337
2.06013987,-0.57926916,-1.54218110

>  <Name>
ligand.pdb

>  <RI>
3.29373e+07

>  <Rbt.Current_Directory>
/home/v/Downloads/rDock_2013.1_src/bin

>  <Rbt.Executable>
rbdock ($Id: //depot/dev/client3/rdock/2013.1/src/exe/rbdock.cxx#4 $)

>  <Rbt.Library>
libRbt.so (2013.1, Build901 2013/11/27)

>  <Rbt.Parameter_File>
/home/v/Downloads/rDock_2013.1_src/data/scripts/dock_solv.prm

>  <Rbt.Receptor>
/home/v/Desktop/r.prm

>  <SCORE>
7.49249

>  <SCORE.INTER>
8.4

>  <SCORE.INTER.CONST>
1

>  <SCORE.INTER.POLAR>
0

>  <SCORE.INTER.ROT>
3

>  <SCORE.INTER.SOLV>
0

>  <SCORE.INTER.VDW>
0

>  <SCORE.INTER.norm>
0.6

>  <SCORE.INTRA>
-0.907508

>  <SCORE.INTRA.DIHEDRAL>
-1.60759

>  <SCORE.INTRA.DIHEDRAL.0>
1.6411

>  <SCORE.INTRA.POLAR>
0

>  <SCORE.INTRA.POLAR.0>
0

>  <SCORE.INTRA.REPUL>
0

>  <SCORE.INTRA.REPUL.0>
0

>  <SCORE.INTRA.SOLV>
-0.2959

>  <SCORE.INTRA.SOLV.lig_0>
-16.0602

>  <SCORE.INTRA.VDW>
0.0442355

>  <SCORE.INTRA.VDW.0>
-0.639572

>  <SCORE.INTRA.norm>
-0.064822

>  <SCORE.RESTR>
0

>  <SCORE.RESTR.CAVITY>
0

>  <SCORE.RESTR.norm>
0

>  <SCORE.SYSTEM>
0

>  <SCORE.SYSTEM.CONST>
0

>  <SCORE.SYSTEM.DIHEDRAL>
0

>  <SCORE.SYSTEM.SOLV>
0

>  <SCORE.SYSTEM.norm>
0

>  <SCORE.heavy>
14

>  <SCORE.norm>
0.535178

$$$$
ligand.pdb
  rDOCK(R)          3D
libRbt.so/2013.1/901 2013/11/27
 14 14  0  0  0  0  0  0  0  0999 V2000
   20.8848  -13.2192   -8.5915 C   0  0  0  0  0  0
   17.1968   -6.4653  -10.6403 C   0  0  0  0  0  0
   20.1514  -12.5045   -9.7149 C   0  0  0  0  0  0
   19.6389  -11.1226   -9.3105 C   0  0  0  0  0  0
   18.3470   -9.2464  -10.2338 C   0  0  0  0  0  0
   17.1939   -7.4768  -11.5937 C   0  0  0  0  0  0
   16.6091   -7.2396  -12.8294 C   0  0  0  0  0  0
   16.0491   -6.0019  -13.1097 C   0  0  0  0  0  0
   16.0426   -5.0086  -12.1566 C   0  0  0  0  0  0
   16.6187   -5.2372  -10.9297 C   0  0  0  0  0  0
   18.9171  -10.4630  -10.3851 N   0  0  0  0  0  0
   17.7495   -8.7599  -11.3700 N   0  0  0  0  0  0
   18.3582   -8.6347   -9.1576 O   0  0  0  0  0  0
   21.0059  -12.3666  -10.8427 O   0  0  0  0  0  0
  2 10  2  0  0  0
  2  6  1  0  0  0
  3  4  1  0  0  0
  3  1  1  0  0  0
  4 11  1  0  0  0
  5 11  1  0  0  0
  5 12  1  0  0  0
  6  7  2  0  0  0
  7  8  1  0  0  0
  9  8  2  0  0  0
 10  9  1  0  0  0
 12  6  1  0  0  0
 13  5  2  0  0  0
 14  3  1  0  0  0
M  END
>  <CHROM.1>
-178.83541961,178.21371045,1.10931655,18.28548544,-8.96206422,-10.72076072
0.02419991,-1.04280184,1.23835227

>  <Name>
ligand.pdb

>  <RI>
3.29373e+07

>  <Rbt.Current_Directory>
/home/v/Downloads/rDock_2013.1_src/bin

>  <Rbt.Executable>
rbdock ($Id: //depot/dev/client3/rdock/2013.1/src/exe/rbdock.cxx#4 $)

>  <Rbt.Library>
libRbt.so (2013.1, Build901 2013/11/27)

>  <Rbt.Parameter_File>
/home/v/Downloads/rDock_2013.1_src/data/scripts/dock_solv.prm

>  <Rbt.Receptor>
/home/v/Desktop/r.prm

>  <SCORE>
7.49278

>  <SCORE.INTER>
8.4

>  <SCORE.INTER.CONST>
1

>  <SCORE.INTER.POLAR>
0

>  <SCORE.INTER.ROT>
3

>  <SCORE.INTER.SOLV>
0

>  <SCORE.INTER.VDW>
0

>  <SCORE.INTER.norm>
0.6

>  <SCORE.INTRA>
-0.907219

>  <SCORE.INTRA.DIHEDRAL>
-1.61225

>  <SCORE.INTRA.DIHEDRAL.0>
1.6411

>  <SCORE.INTRA.POLAR>
0

>  <SCORE.INTRA.POLAR.0>
0

>  <SCORE.INTRA.REPUL>
0

>  <SCORE.INTRA.REPUL.0>
0

>  <SCORE.INTRA.SOLV>
-0.295076

>  <SCORE.INTRA.SOLV.lig_0>
-16.0602

>  <SCORE.INTRA.VDW>
0.0464441

>  <SCORE.INTRA.VDW.0>
-0.639572

>  <SCORE.INTRA.norm>
-0.0648014

>  <SCORE.RESTR>
0

>  <SCORE.RESTR.CAVITY>
0

>  <SCORE.RESTR.norm>
0

>  <SCORE.SYSTEM>
0

>  <SCORE.SYSTEM.CONST>
0

>  <SCORE.SYSTEM.DIHEDRAL>
0

>  <SCORE.SYSTEM.SOLV>
0

>  <SCORE.SYSTEM.norm>
0

>  <SCORE.heavy>
14

>  <SCORE.norm>
0.535199

$$$$
ligand.pdb
  rDOCK(R)          3D
libRbt.so/2013.1/901 2013/11/27
 14 14  0  0  0  0  0  0  0  0999 V2000
   16.1320   -9.4903  -14.1088 C   0  0  0  0  0  0
   19.0244  -11.4469   -6.9525 C   0  0  0  0  0  0
   15.7938  -10.1330  -12.7734 C   0  0  0  0  0  0
   16.9926  -10.2169  -11.8293 C   0  0  0  0  0  0
   17.5772  -11.0535   -9.5932 C   0  0  0  0  0  0
   17.7170  -11.8412   -7.2119 C   0  0  0  0  0  0
   16.9951  -12.4855   -6.2174 C   0  0  0  0  0  0
   17.5708  -12.7175   -4.9770 C   0  0  0  0  0  0
   18.8707  -12.3373   -4.7305 C   0  0  0  0  0  0
   19.5923  -11.6999   -5.7117 C   0  0  0  0  0  0
   16.6617  -10.8597  -10.5691 N   0  0  0  0  0  0
   17.0725  -11.6325   -8.4554 N   0  0  0  0  0  0
   18.7680  -10.7423   -9.7257 O   0  0  0  0  0  0
   14.7537   -9.4053  -12.1333 O   0  0  0  0  0  0
  2 10  2  0  0  0
  2  6  1  0  0  0
  3  4  1  0  0  0
  3  1  1  0  0  0
  4 11  1  0  0  0
  5 11  1  0  0  0
  5 12  1  0  0  0
  6  7  2  0  0  0
  7  8  1  0  0  0
  9  8  2  0  0  0
 10  9  1  0  0  0
 12  6  1  0  0  0
 13  5  2  0  0  0
 14  3  1  0  0  0
M  END
>  <CHROM.1>
-178.72709133,179.19279439,0.96183632,17.35111816,-11.08928632,-9.07172177
-1.89108236,0.09543259,1.92478395

>  <Name>
ligand.pdb

>  <RI>
3.29373e+07

>  <Rbt.Current_Directory>
/home/v/Downloads/rDock_2013.1_src/bin

>  <Rbt.Executable>
rbdock ($Id: //depot/dev/client3/rdock/2013.1/src/exe/rbdock.cxx#4 $)

>  <Rbt.Library>
libRbt.so (2013.1, Build901 2013/11/27)

>  <Rbt.Parameter_File>
/home/v/Downloads/rDock_2013.1_src/data/scripts/dock_solv.prm

>  <Rbt.Receptor>
/home/v/Desktop/r.prm

>  <SCORE>
7.49203

>  <SCORE.INTER>
8.4

>  <SCORE.INTER.CONST>
1

>  <SCORE.INTER.POLAR>
0

>  <SCORE.INTER.ROT>
3

>  <SCORE.INTER.SOLV>
0

>  <SCORE.INTER.VDW>
0

>  <SCORE.INTER.norm>
0.6

>  <SCORE.INTRA>
-0.907974

>  <SCORE.INTRA.DIHEDRAL>
-1.61408

>  <SCORE.INTRA.DIHEDRAL.0>
1.6411

>  <SCORE.INTRA.POLAR>
0

>  <SCORE.INTRA.POLAR.0>
0

>  <SCORE.INTRA.REPUL>
0

>  <SCORE.INTRA.REPUL.0>
0

>  <SCORE.INTRA.SOLV>
-0.294331

>  <SCORE.INTRA.SOLV.lig_0>
-16.0602

>  <SCORE.INTRA.VDW>
0.0462308

>  <SCORE.INTRA.VDW.0>
-0.639572

>  <SCORE.INTRA.norm>
-0.0648553

>  <SCORE.RESTR>
0

>  <SCORE.RESTR.CAVITY>
0

>  <SCORE.RESTR.norm>
0

>  <SCORE.SYSTEM>
0

>  <SCORE.SYSTEM.CONST>
0

>  <SCORE.SYSTEM.DIHEDRAL>
0

>  <SCORE.SYSTEM.SOLV>
0

>  <SCORE.SYSTEM.norm>
0

>  <SCORE.heavy>
14

>  <SCORE.norm>
0.535145

$$$$
ligand.pdb
  rDOCK(R)          3D
libRbt.so/2013.1/901 2013/11/27
 14 14  0  0  0  0  0  0  0  0999 V2000
   22.5724   -9.6386  -12.5555 C   0  0  0  0  0  0
   16.9243   -9.7919   -6.9447 C   0  0  0  0  0  0
   21.4318   -8.8533  -11.9287 C   0  0  0  0  0  0
   20.6942   -9.6345  -10.8418 C   0  0  0  0  0  0
   18.7894   -9.3907   -9.3074 C   0  0  0  0  0  0
   16.9291   -8.6786   -7.7768 C   0  0  0  0  0  0
   16.0110   -7.6627   -7.5524 C   0  0  0  0  0  0
   15.1119   -7.7554   -6.5003 C   0  0  0  0  0  0
   15.1026   -8.8668   -5.6880 C   0  0  0  0  0  0
   16.0083   -9.8778   -5.9056 C   0  0  0  0  0  0
   19.5828   -8.8866  -10.2793 N   0  0  0  0  0  0
   17.8211   -8.5236   -8.8656 N   0  0  0  0  0  0
   18.9244  -10.5395   -8.8665 O   0  0  0  0  0  0
   21.9246   -7.6420  -11.3709 O   0  0  0  0  0  0
  2 10  2  0  0  0
  2  6  1  0  0  0
  3  4  1  0  0  0
  3  1  1  0  0  0
  4 11  1  0  0  0
  5 11  1  0  0  0
  5 12  1  0  0  0
  6  7  2  0  0  0
  7  8  1  0  0  0
  9  8  2  0  0  0
 10  9  1  0  0  0
 12  6  1  0  0  0
 13  5  2  0  0  0
 14  3  1  0  0  0
M  END
>  <CHROM.1>
-178.31187115,179.67283392,0.92965033,18.54356274,-8.99194362,-8.98276396
-0.18052702,-0.70389927,2.82651774

>  <Name>
ligand.pdb

>  <RI>
3.29373e+07

>  <Rbt.Current_Directory>
/home/v/Downloads/rDock_2013.1_src/bin

>  <Rbt.Executable>
rbdock ($Id: //depot/dev/client3/rdock/2013.1/src/exe/rbdock.cxx#4 $)

>  <Rbt.Library>
libRbt.so (2013.1, Build901 2013/11/27)

>  <Rbt.Parameter_File>
/home/v/Downloads/rDock_2013.1_src/data/scripts/dock_solv.prm

>  <Rbt.Receptor>
/home/v/Desktop/r.prm

>  <SCORE>
7.49228

>  <SCORE.INTER>
8.4

>  <SCORE.INTER.CONST>
1

>  <SCORE.INTER.POLAR>
0

>  <SCORE.INTER.ROT>
3

>  <SCORE.INTER.SOLV>
0

>  <SCORE.INTER.VDW>
0

>  <SCORE.INTER.norm>
0.6

>  <SCORE.INTRA>
-0.907722

>  <SCORE.INTRA.DIHEDRAL>
-1.60992

>  <SCORE.INTRA.DIHEDRAL.0>
1.6411

>  <SCORE.INTRA.POLAR>
0

>  <SCORE.INTRA.POLAR.0>
0

>  <SCORE.INTRA.REPUL>
0

>  <SCORE.INTRA.REPUL.0>
0

>  <SCORE.INTRA.SOLV>
-0.295543

>  <SCORE.INTRA.SOLV.lig_0>
-16.0602

>  <SCORE.INTRA.VDW>
0.0450099

>  <SCORE.INTRA.VDW.0>
-0.639572

>  <SCORE.INTRA.norm>
-0.0648373

>  <SCORE.RESTR>
0

>  <SCORE.RESTR.CAVITY>
0

>  <SCORE.RESTR.norm>
0

>  <SCORE.SYSTEM>
0

>  <SCORE.SYSTEM.CONST>
0

>  <SCORE.SYSTEM.DIHEDRAL>
0

>  <SCORE.SYSTEM.SOLV>
0

>  <SCORE.SYSTEM.norm>
0

>  <SCORE.heavy>
14

>  <SCORE.norm>
0.535163

$$$$
ligand.pdb
  rDOCK(R)          3D
libRbt.so/2013.1/901 2013/11/27
 14 14  0  0  0  0  0  0  0  0999 V2000
    9.8361   -6.6221  -15.8065 C   0  0  0  0  0  0
   14.4888  -11.7522  -11.8766 C   0  0  0  0  0  0
    9.8472   -7.9075  -14.9951 C   0  0  0  0  0  0
   11.2541   -8.3496  -14.5941 C   0  0  0  0  0  0
   12.3891  -10.1745  -13.4012 C   0  0  0  0  0  0
   13.1404  -12.0817  -11.9491 C   0  0  0  0  0  0
   12.6874  -13.2228  -11.3025 C   0  0  0  0  0  0
   13.5708  -14.0130  -10.5819 C   0  0  0  0  0  0
   14.9076  -13.6893  -10.5253 C   0  0  0  0  0  0
   15.3636  -12.5612  -11.1648 C   0  0  0  0  0  0
   11.2510   -9.5919  -13.8407 N   0  0  0  0  0  0
   12.1889  -11.3167  -12.6663 N   0  0  0  0  0  0
   13.5117   -9.7171  -13.6525 O   0  0  0  0  0  0
    9.0626   -7.7475  -13.8203 O   0  0  0  0  0  0
  2 10  2  0  0  0
  2  6  1  0  0  0
  3  4  1  0  0  0
  3  1  1  0  0  0
  4 11  1  0  0  0
  5 11  1  0  0  0
  5 12  1  0  0  0
  6  7  2  0  0  0
  7  8  1  0  0  0
  9  8  2  0  0  0
 10  9  1  0  0  0
 12  6  1  0  0  0
 13  5  2  0  0  0
 14  3  1  0  0  0
M  END
>  <CHROM.1>
-178.93314212,179.08831932,0.68312468,12.31449377,-10.50452194,-12.94286958
-2.13514505,-0.05562409,2.50318901

>  <Name>
ligand.pdb

>  <RI>
3.29373e+07

>  <Rbt.Current_Directory>
/home/v/Downloads/rDock_2013.1_src/bin

>  <Rbt.Executable>
rbdock ($Id: //depot/dev/client3/rdock/2013.1/src/exe/rbdock.cxx#4 $)

>  <Rbt.Library>
libRbt.so (2013.1, Build901 2013/11/27)

>  <Rbt.Parameter_File>
/home/v/Downloads/rDock_2013.1_src/data/scripts/dock_solv.prm

>  <Rbt.Receptor>
/home/v/Desktop/r.prm

>  <SCORE>
7.49211

>  <SCORE.INTER>
8.4

>  <SCORE.INTER.CONST>
1

>  <SCORE.INTER.POLAR>
0

>  <SCORE.INTER.ROT>
3

>  <SCORE.INTER.SOLV>
0

>  <SCORE.INTER.VDW>
0

>  <SCORE.INTER.norm>
0.6

>  <SCORE.INTRA>
-0.907888

>  <SCORE.INTRA.DIHEDRAL>
-1.61708

>  <SCORE.INTRA.DIHEDRAL.0>
1.6411

>  <SCORE.INTRA.POLAR>
0

>  <SCORE.INTRA.POLAR.0>
0

>  <SCORE.INTRA.REPUL>
0

>  <SCORE.INTRA.REPUL.0>
0

>  <SCORE.INTRA.SOLV>
-0.293546

>  <SCORE.INTRA.SOLV.lig_0>
-16.0602

>  <SCORE.INTRA.VDW>
0.0474269

>  <SCORE.INTRA.VDW.0>
-0.639572

>  <SCORE.INTRA.norm>
-0.0648492

>  <SCORE.RESTR>
0

>  <SCORE.RESTR.CAVITY>
0

>  <SCORE.RESTR.norm>
0

>  <SCORE.SYSTEM>
0

>  <SCORE.SYSTEM.CONST>
0

>  <SCORE.SYSTEM.DIHEDRAL>
0

>  <SCORE.SYSTEM.SOLV>
0

>  <SCORE.SYSTEM.norm>
0

>  <SCORE.heavy>
14

>  <SCORE.norm>
0.535151

$$$$
ligand.pdb
  rDOCK(R)          3D
libRbt.so/2013.1/901 2013/11/27
 14 14  0  0  0  0  0  0  0  0999 V2000
   22.4010   -7.6436  -10.6802 C   0  0  0  0  0  0
   14.6717   -6.0138   -9.6770 C   0  0  0  0  0  0
   21.2249   -7.7724   -9.7258 C   0  0  0  0  0  0
   19.9595   -7.0869  -10.2400 C   0  0  0  0  0  0
   17.6368   -6.6592   -9.5590 C   0  0  0  0  0  0
   15.3157   -6.6104   -8.5994 C   0  0  0  0  0  0
   14.5810   -6.9351   -7.4680 C   0  0  0  0  0  0
   13.2186   -6.6788   -7.4241 C   0  0  0  0  0  0
   12.5889   -6.0749   -8.4889 C   0  0  0  0  0  0
   13.3108   -5.7491   -9.6124 C   0  0  0  0  0  0
   18.8530   -7.1922   -9.3044 N   0  0  0  0  0  0
   16.7019   -6.8990   -8.5827 N   0  0  0  0  0  0
   17.3975   -6.0039  -10.5817 O   0  0  0  0  0  0
   20.9405   -9.1447   -9.4872 O   0  0  0  0  0  0
  2 10  2  0  0  0
  2  6  1  0  0  0
  3  4  1  0  0  0
  3  1  1  0  0  0
  4 11  1  0  0  0
  5 11  1  0  0  0
  5 12  1  0  0  0
  6  7  2  0  0  0
  7  8  1  0  0  0
  9  8  2  0  0  0
 10  9  1  0  0  0
 12  6  1  0  0  0
 13  5  2  0  0  0
 14  3  1  0  0  0
M  END
>  <CHROM.1>
-178.69527911,-179.83422999,0.35700049,17.20833846,-6.92488268,-9.28867922
0.03916422,0.28668679,-0.93617479

>  <Name>
ligand.pdb

>  <RI>
3.29373e+07

>  <Rbt.Current_Directory>
/home/v/Downloads/rDock_2013.1_src/bin

>  <Rbt.Executable>
rbdock ($Id: //depot/dev/client3/rdock/2013.1/src/exe/rbdock.cxx#4 $)

>  <Rbt.Library>
libRbt.so (2013.1, Build901 2013/11/27)

>  <Rbt.Parameter_File>
/home/v/Downloads/rDock_2013.1_src/data/scripts/dock_solv.prm

>  <Rbt.Receptor>
/home/v/Desktop/r.prm

>  <SCORE>
7.49219

>  <SCORE.INTER>
8.4

>  <SCORE.INTER.CONST>
1

>  <SCORE.INTER.POLAR>
0

>  <SCORE.INTER.ROT>
3

>  <SCORE.INTER.SOLV>
0

>  <SCORE.INTER.VDW>
0

>  <SCORE.INTER.norm>
0.6

>  <SCORE.INTRA>
-0.907808

>  <SCORE.INTRA.DIHEDRAL>
-1.61659

>  <SCORE.INTRA.DIHEDRAL.0>
1.6411

>  <SCORE.INTRA.POLAR>
0

>  <SCORE.INTRA.POLAR.0>
0

>  <SCORE.INTRA.REPUL>
0

>  <SCORE.INTRA.REPUL.0>
0

>  <SCORE.INTRA.SOLV>
-0.293163

>  <SCORE.INTRA.SOLV.lig_0>
-16.0602

>  <SCORE.INTRA.VDW>
0.0470699

>  <SCORE.INTRA.VDW.0>
-0.639572

>  <SCORE.INTRA.norm>
-0.0648434

>  <SCORE.RESTR>
0

>  <SCORE.RESTR.CAVITY>
0

>  <SCORE.RESTR.norm>
0

>  <SCORE.SYSTEM>
0

>  <SCORE.SYSTEM.CONST>
0

>  <SCORE.SYSTEM.DIHEDRAL>
0

>  <SCORE.SYSTEM.SOLV>
0

>  <SCORE.SYSTEM.norm>
0

>  <SCORE.heavy>
14

>  <SCORE.norm>
0.535157

$$$$
ligand.pdb
  rDOCK(R)          3D
libRbt.so/2013.1/901 2013/11/27
 14 14  0  0  0  0  0  0  0  0999 V2000
   15.8608  -15.5541   -6.0913 C   0  0  0  0  0  0
   16.9774   -9.9388  -11.6260 C   0  0  0  0  0  0
   16.2866  -15.3031   -7.5289 C   0  0  0  0  0  0
   16.1612  -13.8372   -7.9426 C   0  0  0  0  0  0
   16.5078  -12.3944   -9.9021 C   0  0  0  0  0  0
   17.1699  -11.2520  -12.0392 C   0  0  0  0  0  0
   17.5954  -11.4970  -13.3369 C   0  0  0  0  0  0
   17.8385  -10.4405  -14.2021 C   0  0  0  0  0  0
   17.6327   -9.1427  -13.7917 C   0  0  0  0  0  0
   17.2096   -8.8927  -12.5079 C   0  0  0  0  0  0
   16.5359  -13.6187   -9.3292 N   0  0  0  0  0  0
   16.9409  -12.3728  -11.2047 N   0  0  0  0  0  0
   16.1143  -11.3864   -9.3008 O   0  0  0  0  0  0
   17.6323  -15.7210   -7.7172 O   0  0  0  0  0  0
  2 10  2  0  0  0
  2  6  1  0  0  0
  3  4  1  0  0  0
  3  1  1  0  0  0
  4 11  1  0  0  0
  5 11  1  0  0  0
  5 12  1  0  0  0
  6  7  2  0  0  0
  7  8  1  0  0  0
  9  8  2  0  0  0
 10  9  1  0  0  0
 12  6  1  0  0  0
 13  5  2  0  0  0
 14  3  1  0  0  0
M  END
>  <CHROM.1>
-178.39630873,-179.57233574,0.12934423,16.87396748,-12.33593827,-10.33793725
1.84800590,-1.08764054,2.53632139

>  <Name>
ligand.pdb

>  <RI>
3.29373e+07

>  <Rbt.Current_Directory>
/home/v/Downloads/rDock_2013.1_src/bin

>  <Rbt.Executable>
rbdock ($Id: //depot/dev/client3/rdock/2013.1/src/exe/rbdock.cxx#4 $)

>  <Rbt.Library>
libRbt.so (2013.1, Build901 2013/11/27)

>  <Rbt.Parameter_File>
/home/v/Downloads/rDock_2013.1_src/data/scripts/dock_solv.prm

>  <Rbt.Receptor>
/home/v/Desktop/r.prm

>  <SCORE>
7.49269

>  <SCORE.INTER>
8.4

>  <SCORE.INTER.CONST>
1

>  <SCORE.INTER.POLAR>
0

>  <SCORE.INTER.ROT>
3

>  <SCORE.INTER.SOLV>
0

>  <SCORE.INTER.VDW>
0

>  <SCORE.INTER.norm>
0.6

>  <SCORE.INTRA>
-0.907312

>  <SCORE.INTRA.DIHEDRAL>
-1.61359

>  <SCORE.INTRA.DIHEDRAL.0>
1.6411

>  <SCORE.INTRA.POLAR>
0

>  <SCORE.INTRA.POLAR.0>
0

>  <SCORE.INTRA.REPUL>
0

>  <SCORE.INTRA.REPUL.0>
0

>  <SCORE.INTRA.SOLV>
-0.294127

>  <SCORE.INTRA.SOLV.lig_0>
-16.0602

>  <SCORE.INTRA.VDW>
0.0465484

>  <SCORE.INTRA.VDW.0>
-0.639572

>  <SCORE.INTRA.norm>
-0.064808

>  <SCORE.RESTR>
0

>  <SCORE.RESTR.CAVITY>
0

>  <SCORE.RESTR.norm>
0

>  <SCORE.SYSTEM>
0

>  <SCORE.SYSTEM.CONST>
0

>  <SCORE.SYSTEM.DIHEDRAL>
0

>  <SCORE.SYSTEM.SOLV>
0

>  <SCORE.SYSTEM.norm>
0

>  <SCORE.heavy>
14

>  <SCORE.norm>
0.535192

$$$$
ligand.pdb
  rDOCK(R)          3D
libRbt.so/2013.1/901 2013/11/27
 14 14  0  0  0  0  0  0  0  0999 V2000
   20.1335  -10.5722  -11.0679 C   0  0  0  0  0  0
   15.6310   -6.3447   -6.0439 C   0  0  0  0  0  0
   18.9789   -9.5880  -10.9731 C   0  0  0  0  0  0
   18.5823   -9.2683   -9.5322 C   0  0  0  0  0  0
   16.9573   -7.9148   -8.2795 C   0  0  0  0  0  0
   15.2870   -6.2637   -7.3882 C   0  0  0  0  0  0
   14.2498   -5.4255   -7.7714 C   0  0  0  0  0  0
   13.5779   -4.6690   -6.8226 C   0  0  0  0  0  0
   13.9137   -4.7640   -5.4909 C   0  0  0  0  0  0
   14.9392   -5.5936   -5.1040 C   0  0  0  0  0  0
   17.4638   -8.3440   -9.4573 N   0  0  0  0  0  0
   15.9342   -7.0079   -8.4042 N   0  0  0  0  0  0
   17.3782   -8.3175   -7.1871 O   0  0  0  0  0  0
   19.3166   -8.3771  -11.6370 O   0  0  0  0  0  0
  2 10  2  0  0  0
  2  6  1  0  0  0
  3  4  1  0  0  0
  3  1  1  0  0  0
  4 11  1  0  0  0
  5 11  1  0  0  0
  5 12  1  0  0  0
  6  7  2  0  0  0
  7  8  1  0  0  0
  9  8  2  0  0  0
 10  9  1  0  0  0
 12  6  1  0  0  0
 13  5  2  0  0  0
 14  3  1  0  0  0
M  END
>  <CHROM.1>
-179.04914936,-179.34246167,0.76549370,16.70439928,-7.40067304,-8.31093035
-0.50797135,-0.78324017,1.73337725

>  <Name>
ligand.pdb

>  <RI>
3.29373e+07

>  <Rbt.Current_Directory>
/home/v/Downloads/rDock_2013.1_src/bin

>  <Rbt.Executable>
rbdock ($Id: //depot/dev/client3/rdock/2013.1/src/exe/rbdock.cxx#4 $)

>  <Rbt.Library>
libRbt.so (2013.1, Build901 2013/11/27)

>  <Rbt.Parameter_File>
/home/v/Downloads/rDock_2013.1_src/data/scripts/dock_solv.prm

>  <Rbt.Receptor>
/home/v/Desktop/r.prm

>  <SCORE>
7.49269

>  <SCORE.INTER>
8.4

>  <SCORE.INTER.CONST>
1

>  <SCORE.INTER.POLAR>
0

>  <SCORE.INTER.ROT>
3

>  <SCORE.INTER.SOLV>
0

>  <SCORE.INTER.VDW>
0

>  <SCORE.INTER.norm>
0.6

>  <SCORE.INTRA>
-0.907305

>  <SCORE.INTRA.DIHEDRAL>
-1.61801

>  <SCORE.INTRA.DIHEDRAL.0>
1.6411

>  <SCORE.INTRA.POLAR>
0

>  <SCORE.INTRA.POLAR.0>
0

>  <SCORE.INTRA.REPUL>
0

>  <SCORE.INTRA.REPUL.0>
0

>  <SCORE.INTRA.SOLV>
-0.2909

>  <SCORE.INTRA.SOLV.lig_0>
-16.0602

>  <SCORE.INTRA.VDW>
0.0471515

>  <SCORE.INTRA.VDW.0>
-0.639572

>  <SCORE.INTRA.norm>
-0.0648075

>  <SCORE.RESTR>
0

>  <SCORE.RESTR.CAVITY>
0

>  <SCORE.RESTR.norm>
0

>  <SCORE.SYSTEM>
0

>  <SCORE.SYSTEM.CONST>
0

>  <SCORE.SYSTEM.DIHEDRAL>
0

>  <SCORE.SYSTEM.SOLV>
0

>  <SCORE.SYSTEM.norm>
0

>  <SCORE.heavy>
14

>  <SCORE.norm>
0.535192

$$$$
ligand.pdb
  rDOCK(R)          3D
libRbt.so/2013.1/901 2013/11/27
 14 14  0  0  0  0  0  0  0  0999 V2000
   19.0011   -6.5561  -10.3478 C   0  0  0  0  0  0
   15.1872  -12.2067   -6.2326 C   0  0  0  0  0  0
   19.1287   -7.9492   -9.7528 C   0  0  0  0  0  0
   17.8863   -8.3839   -8.9762 C   0  0  0  0  0  0
   17.0593  -10.2816   -7.6508 C   0  0  0  0  0  0
   16.5107  -12.4770   -6.5601 C   0  0  0  0  0  0
   17.0567  -13.7039   -6.2108 C   0  0  0  0  0  0
   16.2825  -14.6507   -5.5565 C   0  0  0  0  0  0
   14.9764  -14.3721   -5.2224 C   0  0  0  0  0  0
   14.4296  -13.1580   -5.5638 C   0  0  0  0  0  0
   18.0302   -9.7087   -8.3972 N   0  0  0  0  0  0
   17.3521  -11.5544   -7.2279 N   0  0  0  0  0  0
   16.0043   -9.6984   -7.3689 O   0  0  0  0  0  0
   19.3826   -8.8960  -10.7824 O   0  0  0  0  0  0
  2 10  2  0  0  0
  2  6  1  0  0  0
  3  4  1  0  0  0
  3  1  1  0  0  0
  4 11  1  0  0  0
  5 11  1  0  0  0
  5 12  1  0  0  0
  6  7  2  0  0  0
  7  8  1  0  0  0
  9  8  2  0  0  0
 10  9  1  0  0  0
 12  6  1  0  0  0
 13  5  2  0  0  0
 14  3  1  0  0  0
M  END
>  <CHROM.1>
-179.15933970,178.91645285,0.66127058,17.07638883,-10.85100800,-7.65221308
1.06970695,0.53363819,-0.36242413

>  <Name>
ligand.pdb

>  <RI>
3.29373e+07

>  <Rbt.Current_Directory>
/home/v/Downloads/rDock_2013.1_src/bin

>  <Rbt.Executable>
rbdock ($Id: //depot/dev/client3/rdock/2013.1/src/exe/rbdock.cxx#4 $)

>  <Rbt.Library>
libRbt.so (2013.1, Build901 2013/11/27)

>  <Rbt.Parameter_File>
/home/v/Downloads/rDock_2013.1_src/data/scripts/dock_solv.prm

>  <Rbt.Receptor>
/home/v/Desktop/r.prm

>  <SCORE>
7.49248

>  <SCORE.INTER>
8.4

>  <SCORE.INTER.CONST>
1

>  <SCORE.INTER.POLAR>
0

>  <SCORE.INTER.ROT>
3

>  <SCORE.INTER.SOLV>
0

>  <SCORE.INTER.VDW>
0

>  <SCORE.INTER.norm>
0.6

>  <SCORE.INTRA>
-0.90752

>  <SCORE.INTRA.DIHEDRAL>
-1.61863

>  <SCORE.INTRA.DIHEDRAL.0>
1.6411

>  <SCORE.INTRA.POLAR>
0

>  <SCORE.INTRA.POLAR.0>
0

>  <SCORE.INTRA.REPUL>
0

>  <SCORE.INTRA.REPUL.0>
0

>  <SCORE.INTRA.SOLV>
-0.292759

>  <SCORE.INTRA.SOLV.lig_0>
-16.0602

>  <SCORE.INTRA.VDW>
0.048174

>  <SCORE.INTRA.VDW.0>
-0.639572

>  <SCORE.INTRA.norm>
-0.0648228

>  <SCORE.RESTR>
0

>  <SCORE.RESTR.CAVITY>
0

>  <SCORE.RESTR.norm>
0

>  <SCORE.SYSTEM>
0

>  <SCORE.SYSTEM.CONST>
0

>  <SCORE.SYSTEM.DIHEDRAL>
0

>  <SCORE.SYSTEM.SOLV>
0

>  <SCORE.SYSTEM.norm>
0

>  <SCORE.heavy>
14

>  <SCORE.norm>
0.535177

$$$$
ligand.pdb
  rDOCK(R)          3D
libRbt.so/2013.1/901 2013/11/27
 14 14  0  0  0  0  0  0  0  0999 V2000
   16.3599   -6.6746   -6.3326 C   0  0  0  0  0  0
   19.8109  -10.3718  -12.4825 C   0  0  0  0  0  0
   17.3085   -7.7951   -6.7268 C   0  0  0  0  0  0
   17.4406   -7.9623   -8.2401 C   0  0  0  0  0  0
   18.5751   -9.3906   -9.8878 C   0  0  0  0  0  0
   20.0508  -10.9195  -11.2277 C   0  0  0  0  0  0
   20.8964  -12.0141  -11.1181 C   0  0  0  0  0  0
   21.5037  -12.5419  -12.2479 C   0  0  0  0  0  0
   21.2514  -12.0040  -13.4897 C   0  0  0  0  0  0
   20.4135  -10.9205  -13.6059 C   0  0  0  0  0  0
   18.3174   -9.0630   -8.6016 N   0  0  0  0  0  0
   19.4633  -10.4266  -10.0373 N   0  0  0  0  0  0
   18.0441   -8.8085  -10.8426 O   0  0  0  0  0  0
   18.5973   -7.5572   -6.1757 O   0  0  0  0  0  0
  2 10  2  0  0  0
  2  6  1  0  0  0
  3  4  1  0  0  0
  3  1  1  0  0  0
  4 11  1  0  0  0
  5 11  1  0  0  0
  5 12  1  0  0  0
  6  7  2  0  0  0
  7  8  1  0  0  0
  9  8  2  0  0  0
 10  9  1  0  0  0
 12  6  1  0  0  0
 13  5  2  0  0  0
 14  3  1  0  0  0
M  END
>  <CHROM.1>
-178.20346681,179.90796790,1.24439023,19.07675172,-9.65153489,-9.96184325
2.22319653,-0.77339618,1.43549113

>  <Name>
ligand.pdb

>  <RI>
3.29373e+07

>  <Rbt.Current_Directory>
/home/v/Downloads/rDock_2013.1_src/bin

>  <Rbt.Executable>
rbdock ($Id: //depot/dev/client3/rdock/2013.1/src/exe/rbdock.cxx#4 $)

>  <Rbt.Library>
libRbt.so (2013.1, Build901 2013/11/27)

>  <Rbt.Parameter_File>
/home/v/Downloads/rDock_2013.1_src/data/scripts/dock_solv.prm

>  <Rbt.Receptor>
/home/v/Desktop/r.prm

>  <SCORE>
7.49268

>  <SCORE.INTER>
8.4

>  <SCORE.INTER.CONST>
1

>  <SCORE.INTER.POLAR>
0

>  <SCORE.INTER.ROT>
3

>  <SCORE.INTER.SOLV>
0

>  <SCORE.INTER.VDW>
0

>  <SCORE.INTER.norm>
0.6

>  <SCORE.INTRA>
-0.907321

>  <SCORE.INTRA.DIHEDRAL>
-1.60682

>  <SCORE.INTRA.DIHEDRAL.0>
1.6411

>  <SCORE.INTRA.POLAR>
0

>  <SCORE.INTRA.POLAR.0>
0

>  <SCORE.INTRA.REPUL>
0

>  <SCORE.INTRA.REPUL.0>
0

>  <SCORE.INTRA.SOLV>
-0.295714

>  <SCORE.INTRA.SOLV.lig_0>
-16.0602

>  <SCORE.INTRA.VDW>
0.0439475

>  <SCORE.INTRA.VDW.0>
-0.639572

>  <SCORE.INTRA.norm>
-0.0648086

>  <SCORE.RESTR>
0

>  <SCORE.RESTR.CAVITY>
0

>  <SCORE.RESTR.norm>
0

>  <SCORE.SYSTEM>
0

>  <SCORE.SYSTEM.CONST>
0

>  <SCORE.SYSTEM.DIHEDRAL>
0

>  <SCORE.SYSTEM.SOLV>
0

>  <SCORE.SYSTEM.norm>
0

>  <SCORE.heavy>
14

>  <SCORE.norm>
0.535191

$$$$
ligand.pdb
  rDOCK(R)          3D
libRbt.so/2013.1/901 2013/11/27
 14 14  0  0  0  0  0  0  0  0999 V2000
   14.4467  -11.0480  -16.4500 C   0  0  0  0  0  0
   14.3874  -12.1193   -8.5605 C   0  0  0  0  0  0
   15.2229  -10.8090  -15.1650 C   0  0  0  0  0  0
   14.4705  -11.2701  -13.9172 C   0  0  0  0  0  0
   14.7311  -11.3340  -11.4739 C   0  0  0  0  0  0
   15.4603  -11.3977   -9.0708 C   0  0  0  0  0  0
   16.4577  -10.9676   -8.2075 C   0  0  0  0  0  0
   16.3876  -11.2694   -6.8555 C   0  0  0  0  0  0
   15.3156  -11.9723   -6.3536 C   0  0  0  0  0  0
   14.3230  -12.4001   -7.2029 C   0  0  0  0  0  0
   15.2127  -11.0112  -12.6953 N   0  0  0  0  0  0
   15.5908  -11.0590  -10.4395 N   0  0  0  0  0  0
   13.6068  -11.8255  -11.3097 O   0  0  0  0  0  0
   16.4750  -11.4798  -15.2217 O   0  0  0  0  0  0
  2 10  2  0  0  0
  2  6  1  0  0  0
  3  4  1  0  0  0
  3  1  1  0  0  0
  4 11  1  0  0  0
  5 11  1  0  0  0
  5 12  1  0  0  0
  6  7  2  0  0  0
  7  8  1  0  0  0
  9  8  2  0  0  0
 10  9  1  0  0  0
 12  6  1  0  0  0
 13  5  2  0  0  0
 14  3  1  0  0  0
M  END
>  <CHROM.1>
-178.84686073,179.72396367,1.17244437,15.13795311,-11.42478955,-11.08369190
1.60777194,-0.29215509,-1.48632119

>  <Name>
ligand.pdb

>  <RI>
3.29373e+07

>  <Rbt.Current_Directory>
/home/v/Downloads/rDock_2013.1_src/bin

>  <Rbt.Executable>
rbdock ($Id: //depot/dev/client3/rdock/2013.1/src/exe/rbdock.cxx#4 $)

>  <Rbt.Library>
libRbt.so (2013.1, Build901 2013/11/27)

>  <Rbt.Parameter_File>
/home/v/Downloads/rDock_2013.1_src/data/scripts/dock_solv.prm

>  <Rbt.Receptor>
/home/v/Desktop/r.prm

>  <SCORE>
7.49214

>  <SCORE.INTER>
8.4

>  <SCORE.INTER.CONST>
1

>  <SCORE.INTER.POLAR>
0

>  <SCORE.INTER.ROT>
3

>  <SCORE.INTER.SOLV>
0

>  <SCORE.INTER.VDW>
0

>  <SCORE.INTER.norm>
0.6

>  <SCORE.INTRA>
-0.907861

>  <SCORE.INTRA.DIHEDRAL>
-1.61455

>  <SCORE.INTRA.DIHEDRAL.0>
1.6411

>  <SCORE.INTRA.POLAR>
0

>  <SCORE.INTRA.POLAR.0>
0

>  <SCORE.INTRA.REPUL>
0

>  <SCORE.INTRA.REPUL.0>
0

>  <SCORE.INTRA.SOLV>
-0.293101

>  <SCORE.INTRA.SOLV.lig_0>
-16.0602

>  <SCORE.INTRA.VDW>
0.045967

>  <SCORE.INTRA.VDW.0>
-0.639572

>  <SCORE.INTRA.norm>
-0.0648472

>  <SCORE.RESTR>
0

>  <SCORE.RESTR.CAVITY>
0

>  <SCORE.RESTR.norm>
0

>  <SCORE.SYSTEM>
0

>  <SCORE.SYSTEM.CONST>
0

>  <SCORE.SYSTEM.DIHEDRAL>
0

>  <SCORE.SYSTEM.SOLV>
0

>  <SCORE.SYSTEM.norm>
0

>  <SCORE.heavy>
14

>  <SCORE.norm>
0.535153

$$$$
ligand.pdb
  rDOCK(R)          3D
libRbt.so/2013.1/901 2013/11/27
 14 14  0  0  0  0  0  0  0  0999 V2000
   14.3188  -13.3421  -11.5335 C   0  0  0  0  0  0
   11.8822   -5.7820  -10.9947 C   0  0  0  0  0  0
   14.3272  -12.1011  -10.6556 C   0  0  0  0  0  0
   13.6742  -10.8915  -11.3235 C   0  0  0  0  0  0
   13.1694   -8.5296  -10.8675 C   0  0  0  0  0  0
   12.6700   -6.2459   -9.9477 C   0  0  0  0  0  0
   12.9232   -5.4095   -8.8699 C   0  0  0  0  0  0
   12.3822   -4.1327   -8.8360 C   0  0  0  0  0  0
   11.6143   -3.6738   -9.8823 C   0  0  0  0  0  0
   11.3607   -4.4964  -10.9540 C   0  0  0  0  0  0
   13.7052   -9.7089  -10.4801 N   0  0  0  0  0  0
   13.2496   -7.5376   -9.9219 N   0  0  0  0  0  0
   12.6613   -8.3635  -11.9841 O   0  0  0  0  0  0
   13.6572  -12.3679   -9.4305 O   0  0  0  0  0  0
  2 10  2  0  0  0
  2  6  1  0  0  0
  3  4  1  0  0  0
  3  1  1  0  0  0
  4 11  1  0  0  0
  5 11  1  0  0  0
  5 12  1  0  0  0
  6  7  2  0  0  0
  7  8  1  0  0  0
  9  8  2  0  0  0
 10  9  1  0  0  0
 12  6  1  0  0  0
 13  5  2  0  0  0
 14  3  1  0  0  0
M  END
>  <CHROM.1>
-179.24158915,-179.24214803,0.60821929,13.00066205,-8.19789349,-10.42982559
0.83459170,1.18968441,-2.32449663

>  <Name>
ligand.pdb

>  <RI>
3.29373e+07

>  <Rbt.Current_Directory>
/home/v/Downloads/rDock_2013.1_src/bin

>  <Rbt.Executable>
rbdock ($Id: //depot/dev/client3/rdock/2013.1/src/exe/rbdock.cxx#4 $)

>  <Rbt.Library>
libRbt.so (2013.1, Build901 2013/11/27)

>  <Rbt.Parameter_File>
/home/v/Downloads/rDock_2013.1_src/data/scripts/dock_solv.prm

>  <Rbt.Receptor>
/home/v/Desktop/r.prm

>  <SCORE>
7.49311

>  <SCORE.INTER>
8.4

>  <SCORE.INTER.CONST>
1

>  <SCORE.INTER.POLAR>
0

>  <SCORE.INTER.ROT>
3

>  <SCORE.INTER.SOLV>
0

>  <SCORE.INTER.VDW>
0

>  <SCORE.INTER.norm>
0.6

>  <SCORE.INTRA>
-0.906886

>  <SCORE.INTRA.DIHEDRAL>
-1.61986

>  <SCORE.INTRA.DIHEDRAL.0>
1.6411

>  <SCORE.INTRA.POLAR>
0

>  <SCORE.INTRA.POLAR.0>
0

>  <SCORE.INTRA.REPUL>
0

>  <SCORE.INTRA.REPUL.0>
0

>  <SCORE.INTRA.SOLV>
-0.289903

>  <SCORE.INTRA.SOLV.lig_0>
-16.0602

>  <SCORE.INTRA.VDW>
0.0479972

>  <SCORE.INTRA.VDW.0>
-0.639572

>  <SCORE.INTRA.norm>
-0.0647775

>  <SCORE.RESTR>
0

>  <SCORE.RESTR.CAVITY>
0

>  <SCORE.RESTR.norm>
0

>  <SCORE.SYSTEM>
0

>  <SCORE.SYSTEM.CONST>
0

>  <SCORE.SYSTEM.DIHEDRAL>
0

>  <SCORE.SYSTEM.SOLV>
0

>  <SCORE.SYSTEM.norm>
0

>  <SCORE.heavy>
14

>  <SCORE.norm>
0.535222

$$$$
ligand.pdb
  rDOCK(R)          3D
libRbt.so/2013.1/901 2013/11/27
 14 14  0  0  0  0  0  0  0  0999 V2000
   23.0210  -12.0784  -12.4858 C   0  0  0  0  0  0
   16.5274   -7.7728  -14.1230 C   0  0  0  0  0  0
   21.5014  -12.0989  -12.5178 C   0  0  0  0  0  0
   20.8926  -10.7470  -12.8887 C   0  0  0  0  0  0
   18.6957   -9.6916  -13.2072 C   0  0  0  0  0  0
   16.3031   -9.0518  -13.6271 C   0  0  0  0  0  0
   14.9995   -9.5122  -13.5090 C   0  0  0  0  0  0
   13.9381   -8.7076  -13.8964 C   0  0  0  0  0  0
   14.1657   -7.4366  -14.3737 C   0  0  0  0  0  0
   15.4545   -6.9734  -14.4918 C   0  0  0  0  0  0
   19.4401  -10.7783  -12.9024 N   0  0  0  0  0  0
   17.3423   -9.9215  -13.2163 N   0  0  0  0  0  0
   19.1981   -8.5857  -13.4461 O   0  0  0  0  0  0
   21.0479  -13.0775  -13.4439 O   0  0  0  0  0  0
  2 10  2  0  0  0
  2  6  1  0  0  0
  3  4  1  0  0  0
  3  1  1  0  0  0
  4 11  1  0  0  0
  5 11  1  0  0  0
  5 12  1  0  0  0
  6  7  2  0  0  0
  7  8  1  0  0  0
  9  8  2  0  0  0
 10  9  1  0  0  0
 12  6  1  0  0  0
 13  5  2  0  0  0
 14  3  1  0  0  0
M  END
>  <CHROM.1>
-179.43181620,-179.86824584,0.84913261,18.17961245,-9.81916956,-13.42142548
-0.54088580,-0.10391556,-0.13827996

>  <Name>
ligand.pdb

>  <RI>
3.29373e+07

>  <Rbt.Current_Directory>
/home/v/Downloads/rDock_2013.1_src/bin

>  <Rbt.Executable>
rbdock ($Id: //depot/dev/client3/rdock/2013.1/src/exe/rbdock.cxx#4 $)

>  <Rbt.Library>
libRbt.so (2013.1, Build901 2013/11/27)

>  <Rbt.Parameter_File>
/home/v/Downloads/rDock_2013.1_src/data/scripts/dock_solv.prm

>  <Rbt.Receptor>
/home/v/Desktop/r.prm

>  <SCORE>
7.4931

>  <SCORE.INTER>
8.4

>  <SCORE.INTER.CONST>
1

>  <SCORE.INTER.POLAR>
0

>  <SCORE.INTER.ROT>
3

>  <SCORE.INTER.SOLV>
0

>  <SCORE.INTER.VDW>
0

>  <SCORE.INTER.norm>
0.6

>  <SCORE.INTRA>
-0.906898

>  <SCORE.INTRA.DIHEDRAL>
-1.6204

>  <SCORE.INTRA.DIHEDRAL.0>
1.6411

>  <SCORE.INTRA.POLAR>
0

>  <SCORE.INTRA.POLAR.0>
0

>  <SCORE.INTRA.REPUL>
0

>  <SCORE.INTRA.REPUL.0>
0

>  <SCORE.INTRA.SOLV>
-0.289945

>  <SCORE.INTRA.SOLV.lig_0>
-16.0602

>  <SCORE.INTRA.VDW>
0.0482733

>  <SCORE.INTRA.VDW.0>
-0.639572

>  <SCORE.INTRA.norm>
-0.0647784

>  <SCORE.RESTR>
0

>  <SCORE.RESTR.CAVITY>
0

>  <SCORE.RESTR.norm>
0

>  <SCORE.SYSTEM>
0

>  <SCORE.SYSTEM.CONST>
0

>  <SCORE.SYSTEM.DIHEDRAL>
0

>  <SCORE.SYSTEM.SOLV>
0

>  <SCORE.SYSTEM.norm>
0

>  <SCORE.heavy>
14

>  <SCORE.norm>
0.535222

$$$$
ligand.pdb
  rDOCK(R)          3D
libRbt.so/2013.1/901 2013/11/27
 14 14  0  0  0  0  0  0  0  0999 V2000
   15.2203  -11.5168   -4.7260 C   0  0  0  0  0  0
   10.6866  -11.0232  -11.2556 C   0  0  0  0  0  0
   14.3312  -10.5956   -5.5455 C   0  0  0  0  0  0
   13.7997  -11.2537   -6.8183 C   0  0  0  0  0  0
   12.4273  -10.7186   -8.7860 C   0  0  0  0  0  0
   10.8189   -9.8562  -10.5121 C   0  0  0  0  0  0
   10.1247   -8.7212  -10.9060 C   0  0  0  0  0  0
    9.2990   -8.7603  -12.0198 C   0  0  0  0  0  0
    9.1829   -9.9149  -12.7604 C   0  0  0  0  0  0
    9.8689  -11.0427  -12.3769 C   0  0  0  0  0  0
   12.9781  -10.3516   -7.6070 N   0  0  0  0  0  0
   11.6437   -9.7520   -9.3659 N   0  0  0  0  0  0
   12.6256  -11.8286   -9.2970 O   0  0  0  0  0  0
   13.2305  -10.1571   -4.7598 O   0  0  0  0  0  0
  2 10  2  0  0  0
  2  6  1  0  0  0
  3  4  1  0  0  0
  3  1  1  0  0  0
  4 11  1  0  0  0
  5 11  1  0  0  0
  5 12  1  0  0  0
  6  7  2  0  0  0
  7  8  1  0  0  0
  9  8  2  0  0  0
 10  9  1  0  0  0
 12  6  1  0  0  0
 13  5  2  0  0  0
 14  3  1  0  0  0
M  END
>  <CHROM.1>
-178.61847357,178.66845045,-0.28838120,11.95956120,-10.42505151,-8.91995399
-0.52811852,0.87098666,-2.32854698

>  <Name>
ligand.pdb

>  <RI>
3.29373e+07

>  <Rbt.Current_Directory>
/home/v/Downloads/rDock_2013.1_src/bin

>  <Rbt.Executable>
rbdock ($Id: //depot/dev/client3/rdock/2013.1/src/exe/rbdock.cxx#4 $)

>  <Rbt.Library>
libRbt.so (2013.1, Build901 2013/11/27)

>  <Rbt.Parameter_File>
/home/v/Downloads/rDock_2013.1_src/data/scripts/dock_solv.prm

>  <Rbt.Receptor>
/home/v/Desktop/r.prm

>  <SCORE>
7.49291

>  <SCORE.INTER>
8.4

>  <SCORE.INTER.CONST>
1

>  <SCORE.INTER.POLAR>
0

>  <SCORE.INTER.ROT>
3

>  <SCORE.INTER.SOLV>
0

>  <SCORE.INTER.VDW>
0

>  <SCORE.INTER.norm>
0.6

>  <SCORE.INTRA>
-0.907093

>  <SCORE.INTRA.DIHEDRAL>
-1.61526

>  <SCORE.INTRA.DIHEDRAL.0>
1.6411

>  <SCORE.INTRA.POLAR>
0

>  <SCORE.INTRA.POLAR.0>
0

>  <SCORE.INTRA.REPUL>
0

>  <SCORE.INTRA.REPUL.0>
0

>  <SCORE.INTRA.SOLV>
-0.295501

>  <SCORE.INTRA.SOLV.lig_0>
-16.0602

>  <SCORE.INTRA.VDW>
0.0482853

>  <SCORE.INTRA.VDW.0>
-0.639572

>  <SCORE.INTRA.norm>
-0.0647924

>  <SCORE.RESTR>
0

>  <SCORE.RESTR.CAVITY>
0

>  <SCORE.RESTR.norm>
0

>  <SCORE.SYSTEM>
0

>  <SCORE.SYSTEM.CONST>
0

>  <SCORE.SYSTEM.DIHEDRAL>
0

>  <SCORE.SYSTEM.SOLV>
0

>  <SCORE.SYSTEM.norm>
0

>  <SCORE.heavy>
14

>  <SCORE.norm>
0.535208

$$$$
ligand.pdb
  rDOCK(R)          3D
libRbt.so/2013.1/901 2013/11/27
 14 14  0  0  0  0  0  0  0  0999 V2000
   11.6352  -10.9492  -14.6944 C   0  0  0  0  0  0
   16.8579   -8.7066   -9.1193 C   0  0  0  0  0  0
   13.0122  -11.2206  -14.1105 C   0  0  0  0  0  0
   13.4044  -10.2277  -13.0169 C   0  0  0  0  0  0
   15.2697   -9.7424  -11.4914 C   0  0  0  0  0  0
   17.2835   -9.7027   -9.9903 C   0  0  0  0  0  0
   18.5306  -10.2804   -9.7993 C   0  0  0  0  0  0
   19.3320   -9.8756   -8.7420 C   0  0  0  0  0  0
   18.9109   -8.8788   -7.8909 C   0  0  0  0  0  0
   17.6774   -8.3010   -8.0752 C   0  0  0  0  0  0
   14.7323  -10.4842  -12.4859 N   0  0  0  0  0  0
   16.5129  -10.1607  -11.0864 N   0  0  0  0  0  0
   14.6889   -8.7655  -11.0005 O   0  0  0  0  0  0
   13.0629  -12.5372  -13.5766 O   0  0  0  0  0  0
  2 10  2  0  0  0
  2  6  1  0  0  0
  3  4  1  0  0  0
  3  1  1  0  0  0
  4 11  1  0  0  0
  5 11  1  0  0  0
  5 12  1  0  0  0
  6  7  2  0  0  0
  7  8  1  0  0  0
  9  8  2  0  0  0
 10  9  1  0  0  0
 12  6  1  0  0  0
 13  5  2  0  0  0
 14  3  1  0  0  0
M  END
>  <CHROM.1>
-178.92575077,-178.67008704,0.14116697,15.65690510,-10.02637813,-11.17411836
2.51954658,0.50930712,-2.53734480

>  <Name>
ligand.pdb

>  <RI>
3.29373e+07

>  <Rbt.Current_Directory>
/home/v/Downloads/rDock_2013.1_src/bin

>  <Rbt.Executable>
rbdock ($Id: //depot/dev/client3/rdock/2013.1/src/exe/rbdock.cxx#4 $)

>  <Rbt.Library>
libRbt.so (2013.1, Build901 2013/11/27)

>  <Rbt.Parameter_File>
/home/v/Downloads/rDock_2013.1_src/data/scripts/dock_solv.prm

>  <Rbt.Receptor>
/home/v/Desktop/r.prm

>  <SCORE>
7.49359

>  <SCORE.INTER>
8.4

>  <SCORE.INTER.CONST>
1

>  <SCORE.INTER.POLAR>
0

>  <SCORE.INTER.ROT>
3

>  <SCORE.INTER.SOLV>
0

>  <SCORE.INTER.VDW>
0

>  <SCORE.INTER.norm>
0.6

>  <SCORE.INTRA>
-0.906408

>  <SCORE.INTRA.DIHEDRAL>
-1.61781

>  <SCORE.INTRA.DIHEDRAL.0>
1.6411

>  <SCORE.INTRA.POLAR>
0

>  <SCORE.INTRA.POLAR.0>
0

>  <SCORE.INTRA.REPUL>
0

>  <SCORE.INTRA.REPUL.0>
0

>  <SCORE.INTRA.SOLV>
-0.290466

>  <SCORE.INTRA.SOLV.lig_0>
-16.0602

>  <SCORE.INTRA.VDW>
0.0477294

>  <SCORE.INTRA.VDW.0>
-0.639572

>  <SCORE.INTRA.norm>
-0.0647434

>  <SCORE.RESTR>
0

>  <SCORE.RESTR.CAVITY>
0

>  <SCORE.RESTR.norm>
0

>  <SCORE.SYSTEM>
0

>  <SCORE.SYSTEM.CONST>
0

>  <SCORE.SYSTEM.DIHEDRAL>
0

>  <SCORE.SYSTEM.SOLV>
0

>  <SCORE.SYSTEM.norm>
0

>  <SCORE.heavy>
14

>  <SCORE.norm>
0.535257

$$$$
ligand.pdb
  rDOCK(R)          3D
libRbt.so/2013.1/901 2013/11/27
 14 14  0  0  0  0  0  0  0  0999 V2000
   13.3136  -11.7944  -13.3419 C   0  0  0  0  0  0
   16.9801  -12.5920   -6.3183 C   0  0  0  0  0  0
   14.6645  -11.9641  -12.6658 C   0  0  0  0  0  0
   14.5713  -11.9867  -11.1406 C   0  0  0  0  0  0
   16.0258  -12.1324   -9.1644 C   0  0  0  0  0  0
   17.8061  -12.5127   -7.4334 C   0  0  0  0  0  0
   19.1790  -12.6257   -7.2673 C   0  0  0  0  0  0
   19.7140  -12.8300   -6.0040 C   0  0  0  0  0  0
   18.8920  -12.8938   -4.9016 C   0  0  0  0  0  0
   17.5310  -12.7810   -5.0586 C   0  0  0  0  0  0
   15.8730  -12.1134  -10.5077 N   0  0  0  0  0  0
   17.3223  -12.3068   -8.7482 N   0  0  0  0  0  0
   15.0751  -11.9936   -8.3838 O   0  0  0  0  0  0
   15.2812  -13.1665  -13.1072 O   0  0  0  0  0  0
  2 10  2  0  0  0
  2  6  1  0  0  0
  3  4  1  0  0  0
  3  1  1  0  0  0
  4 11  1  0  0  0
  5 11  1  0  0  0
  5 12  1  0  0  0
  6  7  2  0  0  0
  7  8  1  0  0  0
  9  8  2  0  0  0
 10  9  1  0  0  0
 12  6  1  0  0  0
 13  5  2  0  0  0
 14  3  1  0  0  0
M  END
>  <CHROM.1>
-178.45331017,178.92649188,1.11336579,16.49531824,-12.40223042,-8.99211473
2.13459623,0.22907277,-1.63413013

>  <Name>
ligand.pdb

>  <RI>
3.29373e+07

>  <Rbt.Current_Directory>
/home/v/Downloads/rDock_2013.1_src/bin

>  <Rbt.Executable>
rbdock ($Id: //depot/dev/client3/rdock/2013.1/src/exe/rbdock.cxx#4 $)

>  <Rbt.Library>
libRbt.so (2013.1, Build901 2013/11/27)

>  <Rbt.Parameter_File>
/home/v/Downloads/rDock_2013.1_src/data/scripts/dock_solv.prm

>  <Rbt.Receptor>
/home/v/Desktop/r.prm

>  <SCORE>
7.49231

>  <SCORE.INTER>
8.4

>  <SCORE.INTER.CONST>
1

>  <SCORE.INTER.POLAR>
0

>  <SCORE.INTER.ROT>
3

>  <SCORE.INTER.SOLV>
0

>  <SCORE.INTER.VDW>
0

>  <SCORE.INTER.norm>
0.6

>  <SCORE.INTRA>
-0.907688

>  <SCORE.INTRA.DIHEDRAL>
-1.60986

>  <SCORE.INTRA.DIHEDRAL.0>
1.6411

>  <SCORE.INTRA.POLAR>
0

>  <SCORE.INTRA.POLAR.0>
0

>  <SCORE.INTRA.REPUL>
0

>  <SCORE.INTRA.REPUL.0>
0

>  <SCORE.INTRA.SOLV>
-0.295897

>  <SCORE.INTRA.SOLV.lig_0>
-16.0602

>  <SCORE.INTRA.VDW>
0.0451906

>  <SCORE.INTRA.VDW.0>
-0.639572

>  <SCORE.INTRA.norm>
-0.0648348

>  <SCORE.RESTR>
0

>  <SCORE.RESTR.CAVITY>
0

>  <SCORE.RESTR.norm>
0

>  <SCORE.SYSTEM>
0

>  <SCORE.SYSTEM.CONST>
0

>  <SCORE.SYSTEM.DIHEDRAL>
0

>  <SCORE.SYSTEM.SOLV>
0

>  <SCORE.SYSTEM.norm>
0

>  <SCORE.heavy>
14

>  <SCORE.norm>
0.535165

$$$$
ligand.pdb
  rDOCK(R)          3D
libRbt.so/2013.1/901 2013/11/27
 14 14  0  0  0  0  0  0  0  0999 V2000
   20.0110  -14.4710  -13.5674 C   0  0  0  0  0  0
   16.1542   -7.5489  -14.3415 C   0  0  0  0  0  0
   19.2306  -13.4017  -12.8203 C   0  0  0  0  0  0
   18.8381  -12.2193  -13.7056 C   0  0  0  0  0  0
   17.6745  -10.0591  -13.5603 C   0  0  0  0  0  0
   16.2568   -8.0494  -13.0488 C   0  0  0  0  0  0
   15.6506   -7.3615  -12.0074 C   0  0  0  0  0  0
   14.9400   -6.1975  -12.2608 C   0  0  0  0  0  0
   14.8537   -5.6991  -13.5411 C   0  0  0  0  0  0
   15.4531   -6.3746  -14.5775 C   0  0  0  0  0  0
   18.1113  -11.1962  -12.9735 N   0  0  0  0  0  0
   16.9658   -9.2316  -12.7251 N   0  0  0  0  0  0
   17.9064   -9.7898  -14.7461 O   0  0  0  0  0  0
   18.0536  -13.9644  -12.2554 O   0  0  0  0  0  0
  2 10  2  0  0  0
  2  6  1  0  0  0
  3  4  1  0  0  0
  3  1  1  0  0  0
  4 11  1  0  0  0
  5 11  1  0  0  0
  5 12  1  0  0  0
  6  7  2  0  0  0
  7  8  1  0  0  0
  9  8  2  0  0  0
 10  9  1  0  0  0
 12  6  1  0  0  0
 13  5  2  0  0  0
 14  3  1  0  0  0
M  END
>  <CHROM.1>
-179.10066936,179.61060966,1.36376334,17.22089553,-9.82752459,-13.30180171
-0.62474308,0.95588689,-0.87703543

>  <Name>
ligand.pdb

>  <RI>
3.29373e+07

>  <Rbt.Current_Directory>
/home/v/Downloads/rDock_2013.1_src/bin

>  <Rbt.Executable>
rbdock ($Id: //depot/dev/client3/rdock/2013.1/src/exe/rbdock.cxx#4 $)

>  <Rbt.Library>
libRbt.so (2013.1, Build901 2013/11/27)

>  <Rbt.Parameter_File>
/home/v/Downloads/rDock_2013.1_src/data/scripts/dock_solv.prm

>  <Rbt.Receptor>
/home/v/Desktop/r.prm

>  <SCORE>
7.49253

>  <SCORE.INTER>
8.4

>  <SCORE.INTER.CONST>
1

>  <SCORE.INTER.POLAR>
0

>  <SCORE.INTER.ROT>
3

>  <SCORE.INTER.SOLV>
0

>  <SCORE.INTER.VDW>
0

>  <SCORE.INTER.norm>
0.6

>  <SCORE.INTRA>
-0.907472

>  <SCORE.INTRA.DIHEDRAL>
-1.61539

>  <SCORE.INTRA.DIHEDRAL.0>
1.6411

>  <SCORE.INTRA.POLAR>
0

>  <SCORE.INTRA.POLAR.0>
0

>  <SCORE.INTRA.REPUL>
0

>  <SCORE.INTRA.REPUL.0>
0

>  <SCORE.INTRA.SOLV>
-0.292133

>  <SCORE.INTRA.SOLV.lig_0>
-16.0602

>  <SCORE.INTRA.VDW>
0.0462894

>  <SCORE.INTRA.VDW.0>
-0.639572

>  <SCORE.INTRA.norm>
-0.0648195

>  <SCORE.RESTR>
0

>  <SCORE.RESTR.CAVITY>
0

>  <SCORE.RESTR.norm>
0

>  <SCORE.SYSTEM>
0

>  <SCORE.SYSTEM.CONST>
0

>  <SCORE.SYSTEM.DIHEDRAL>
0

>  <SCORE.SYSTEM.SOLV>
0

>  <SCORE.SYSTEM.norm>
0

>  <SCORE.heavy>
14

>  <SCORE.norm>
0.535181

$$$$
ligand.pdb
  rDOCK(R)          3D
libRbt.so/2013.1/901 2013/11/27
 14 14  0  0  0  0  0  0  0  0999 V2000
   15.9068   -2.3455  -11.0890 C   0  0  0  0  0  0
   18.0273   -9.9397   -9.9754 C   0  0  0  0  0  0
   15.5077   -3.6552  -10.4285 C   0  0  0  0  0  0
   16.4724   -4.7994  -10.7380 C   0  0  0  0  0  0
   16.7563   -7.1997  -10.2907 C   0  0  0  0  0  0
   16.8012   -9.5629   -9.4399 C   0  0  0  0  0  0
   16.0634  -10.4919   -8.7203 C   0  0  0  0  0  0
   16.5549  -11.7746   -8.5280 C   0  0  0  0  0  0
   17.7634  -12.1462   -9.0725 C   0  0  0  0  0  0
   18.4989  -11.2315   -9.7880 C   0  0  0  0  0  0
   16.0615   -6.0515  -10.1261 N   0  0  0  0  0  0
   16.2457   -8.2702   -9.5994 N   0  0  0  0  0  0
   17.7595   -7.2736  -11.0123 O   0  0  0  0  0  0
   15.4321   -3.4855   -9.0190 O   0  0  0  0  0  0
  2 10  2  0  0  0
  2  6  1  0  0  0
  3  4  1  0  0  0
  3  1  1  0  0  0
  4 11  1  0  0  0
  5 11  1  0  0  0
  5 12  1  0  0  0
  6  7  2  0  0  0
  7  8  1  0  0  0
  9  8  2  0  0  0
 10  9  1  0  0  0
 12  6  1  0  0  0
 13  5  2  0  0  0
 14  3  1  0  0  0
M  END
>  <CHROM.1>
-178.64433019,178.72795457,1.27019553,16.68419933,-7.57224312,-9.86789744
-1.83074140,-0.71709557,2.81886459

>  <Name>
ligand.pdb

>  <RI>
3.29373e+07

>  <Rbt.Current_Directory>
/home/v/Downloads/rDock_2013.1_src/bin

>  <Rbt.Executable>
rbdock ($Id: //depot/dev/client3/rdock/2013.1/src/exe/rbdock.cxx#4 $)

>  <Rbt.Library>
libRbt.so (2013.1, Build901 2013/11/27)

>  <Rbt.Parameter_File>
/home/v/Downloads/rDock_2013.1_src/data/scripts/dock_solv.prm

>  <Rbt.Receptor>
/home/v/Desktop/r.prm

>  <SCORE>
7.49242

>  <SCORE.INTER>
8.4

>  <SCORE.INTER.CONST>
1

>  <SCORE.INTER.POLAR>
0

>  <SCORE.INTER.ROT>
3

>  <SCORE.INTER.SOLV>
0

>  <SCORE.INTER.VDW>
0

>  <SCORE.INTER.norm>
0.6

>  <SCORE.INTRA>
-0.907585

>  <SCORE.INTRA.DIHEDRAL>
-1.6107

>  <SCORE.INTRA.DIHEDRAL.0>
1.6411

>  <SCORE.INTRA.POLAR>
0

>  <SCORE.INTRA.POLAR.0>
0

>  <SCORE.INTRA.REPUL>
0

>  <SCORE.INTRA.REPUL.0>
0

>  <SCORE.INTRA.SOLV>
-0.295301

>  <SCORE.INTRA.SOLV.lig_0>
-16.0602

>  <SCORE.INTRA.VDW>
0.0454167

>  <SCORE.INTRA.VDW.0>
-0.639572

>  <SCORE.INTRA.norm>
-0.0648275

>  <SCORE.RESTR>
0

>  <SCORE.RESTR.CAVITY>
0

>  <SCORE.RESTR.norm>
0

>  <SCORE.SYSTEM>
0

>  <SCORE.SYSTEM.CONST>
0

>  <SCORE.SYSTEM.DIHEDRAL>
0

>  <SCORE.SYSTEM.SOLV>
0

>  <SCORE.SYSTEM.norm>
0

>  <SCORE.heavy>
14

>  <SCORE.norm>
0.535173

$$$$
ligand.pdb
  rDOCK(R)          3D
libRbt.so/2013.1/901 2013/11/27
 14 14  0  0  0  0  0  0  0  0999 V2000
   14.1461  -13.9768   -8.9765 C   0  0  0  0  0  0
   15.5104   -6.5160   -6.5484 C   0  0  0  0  0  0
   14.1150  -12.5160   -9.3958 C   0  0  0  0  0  0
   14.4850  -11.5603   -8.2621 C   0  0  0  0  0  0
   14.7005   -9.1519   -7.8204 C   0  0  0  0  0  0
   15.0000   -6.6578   -7.8335 C   0  0  0  0  0  0
   14.8224   -5.5279   -8.6191 C   0  0  0  0  0  0
   15.1655   -4.2767   -8.1285 C   0  0  0  0  0  0
   15.6575   -4.1409   -6.8500 C   0  0  0  0  0  0
   15.8344   -5.2558   -6.0656 C   0  0  0  0  0  0
   14.4191  -10.1668   -8.6682 N   0  0  0  0  0  0
   14.6323   -7.9058   -8.3924 N   0  0  0  0  0  0
   14.9844   -9.3377   -6.6298 O   0  0  0  0  0  0
   15.0038  -12.3040  -10.4850 O   0  0  0  0  0  0
  2 10  2  0  0  0
  2  6  1  0  0  0
  3  4  1  0  0  0
  3  1  1  0  0  0
  4 11  1  0  0  0
  5 11  1  0  0  0
  5 12  1  0  0  0
  6  7  2  0  0  0
  7  8  1  0  0  0
  9  8  2  0  0  0
 10  9  1  0  0  0
 12  6  1  0  0  0
 13  5  2  0  0  0
 14  3  1  0  0  0
M  END
>  <CHROM.1>
-178.58195020,179.67606536,-0.09546306,14.88103343,-8.67810078,-8.08234153
-2.46068518,-1.41271383,-0.62406661

>  <Name>
ligand.pdb

>  <RI>
3.29373e+07

>  <Rbt.Current_Directory>
/home/v/Downloads/rDock_2013.1_src/bin

>  <Rbt.Executable>
rbdock ($Id: //depot/dev/client3/rdock/2013.1/src/exe/rbdock.cxx#4 $)

>  <Rbt.Library>
libRbt.so (2013.1, Build901 2013/11/27)

>  <Rbt.Parameter_File>
/home/v/Downloads/rDock_2013.1_src/data/scripts/dock_solv.prm

>  <Rbt.Receptor>
/home/v/Desktop/r.prm

>  <SCORE>
7.49241

>  <SCORE.INTER>
8.4

>  <SCORE.INTER.CONST>
1

>  <SCORE.INTER.POLAR>
0

>  <SCORE.INTER.ROT>
3

>  <SCORE.INTER.SOLV>
0

>  <SCORE.INTER.VDW>
0

>  <SCORE.INTER.norm>
0.6

>  <SCORE.INTRA>
-0.907595

>  <SCORE.INTRA.DIHEDRAL>
-1.61613

>  <SCORE.INTRA.DIHEDRAL.0>
1.6411

>  <SCORE.INTRA.POLAR>
0

>  <SCORE.INTRA.POLAR.0>
0

>  <SCORE.INTRA.REPUL>
0

>  <SCORE.INTRA.REPUL.0>
0

>  <SCORE.INTRA.SOLV>
-0.294348

>  <SCORE.INTRA.SOLV.lig_0>
-16.0602

>  <SCORE.INTRA.VDW>
0.047644

>  <SCORE.INTRA.VDW.0>
-0.639572

>  <SCORE.INTRA.norm>
-0.0648282

>  <SCORE.RESTR>
0

>  <SCORE.RESTR.CAVITY>
0

>  <SCORE.RESTR.norm>
0

>  <SCORE.SYSTEM>
0

>  <SCORE.SYSTEM.CONST>
0

>  <SCORE.SYSTEM.DIHEDRAL>
0

>  <SCORE.SYSTEM.SOLV>
0

>  <SCORE.SYSTEM.norm>
0

>  <SCORE.heavy>
14

>  <SCORE.norm>
0.535172

$$$$
ligand.pdb
  rDOCK(R)          3D
libRbt.so/2013.1/901 2013/11/27
 14 14  0  0  0  0  0  0  0  0999 V2000
   15.5656  -10.9409   -7.2961 C   0  0  0  0  0  0
   14.3017   -9.8729  -15.0856 C   0  0  0  0  0  0
   15.3077   -9.9018   -8.3753 C   0  0  0  0  0  0
   15.2261  -10.5036   -9.7777 C   0  0  0  0  0  0
   14.9324   -9.8044  -12.1158 C   0  0  0  0  0  0
   14.4079   -8.7181  -14.3193 C   0  0  0  0  0  0
   14.2372   -7.4837  -14.9294 C   0  0  0  0  0  0
   13.9497   -7.4094  -16.2843 C   0  0  0  0  0  0
   13.8596   -8.5559  -17.0410 C   0  0  0  0  0  0
   14.0292   -9.7821  -16.4435 C   0  0  0  0  0  0
   15.0274   -9.4939  -10.8034 N   0  0  0  0  0  0
   14.6976   -8.7268  -12.9333 N   0  0  0  0  0  0
   15.0578  -10.9616  -12.5373 O   0  0  0  0  0  0
   14.0981   -9.2068   -8.1016 O   0  0  0  0  0  0
  2 10  2  0  0  0
  2  6  1  0  0  0
  3  4  1  0  0  0
  3  1  1  0  0  0
  4 11  1  0  0  0
  5 11  1  0  0  0
  5 12  1  0  0  0
  6  7  2  0  0  0
  7  8  1  0  0  0
  9  8  2  0  0  0
 10  9  1  0  0  0
 12  6  1  0  0  0
 13  5  2  0  0  0
 14  3  1  0  0  0
M  END
>  <CHROM.1>
-177.92789880,179.72026807,0.72367928,14.63505241,-9.42565617,-12.41976582
-1.06659419,1.30587366,-1.85486242

>  <Name>
ligand.pdb

>  <RI>
3.29373e+07

>  <Rbt.Current_Directory>
/home/v/Downloads/rDock_2013.1_src/bin

>  <Rbt.Executable>
rbdock ($Id: //depot/dev/client3/rdock/2013.1/src/exe/rbdock.cxx#4 $)

>  <Rbt.Library>
libRbt.so (2013.1, Build901 2013/11/27)

>  <Rbt.Parameter_File>
/home/v/Downloads/rDock_2013.1_src/data/scripts/dock_solv.prm

>  <Rbt.Receptor>
/home/v/Desktop/r.prm

>  <SCORE>
7.49311

>  <SCORE.INTER>
8.4

>  <SCORE.INTER.CONST>
1

>  <SCORE.INTER.POLAR>
0

>  <SCORE.INTER.ROT>
3

>  <SCORE.INTER.SOLV>
0

>  <SCORE.INTER.VDW>
0

>  <SCORE.INTER.norm>
0.6

>  <SCORE.INTRA>
-0.906894

>  <SCORE.INTRA.DIHEDRAL>
-1.60536

>  <SCORE.INTRA.DIHEDRAL.0>
1.6411

>  <SCORE.INTRA.POLAR>
0

>  <SCORE.INTRA.POLAR.0>
0

>  <SCORE.INTRA.REPUL>
0

>  <SCORE.INTRA.REPUL.0>
0

>  <SCORE.INTRA.SOLV>
-0.297186

>  <SCORE.INTRA.SOLV.lig_0>
-16.0602

>  <SCORE.INTRA.VDW>
0.0443819

>  <SCORE.INTRA.VDW.0>
-0.639572

>  <SCORE.INTRA.norm>
-0.0647781

>  <SCORE.RESTR>
0

>  <SCORE.RESTR.CAVITY>
0

>  <SCORE.RESTR.norm>
0

>  <SCORE.SYSTEM>
0

>  <SCORE.SYSTEM.CONST>
0

>  <SCORE.SYSTEM.DIHEDRAL>
0

>  <SCORE.SYSTEM.SOLV>
0

>  <SCORE.SYSTEM.norm>
0

>  <SCORE.heavy>
14

>  <SCORE.norm>
0.535222

$$$$
ligand.pdb
  rDOCK(R)          3D
libRbt.so/2013.1/901 2013/11/27
 14 14  0  0  0  0  0  0  0  0999 V2000
   16.8591  -15.2599   -6.5356 C   0  0  0  0  0  0
   15.8952  -10.4162  -12.7837 C   0  0  0  0  0  0
   16.4568  -13.8568   -6.9603 C   0  0  0  0  0  0
   16.5857  -13.6276   -8.4658 C   0  0  0  0  0  0
   16.2890  -11.8473  -10.1344 C   0  0  0  0  0  0
   15.6721   -9.8534  -11.5325 C   0  0  0  0  0  0
   15.2468   -8.5352  -11.4500 C   0  0  0  0  0  0
   15.0343   -7.7976  -12.6052 C   0  0  0  0  0  0
   15.2704   -8.3559  -13.8412 C   0  0  0  0  0  0
   15.6933   -9.6607  -13.9304 C   0  0  0  0  0  0
   16.2292  -12.2732   -8.8526 N   0  0  0  0  0  0
   15.8691  -10.5531  -10.3172 N   0  0  0  0  0  0
   16.6979  -12.5650  -11.0565 O   0  0  0  0  0  0
   15.1154  -13.5961   -6.5682 O   0  0  0  0  0  0
  2 10  2  0  0  0
  2  6  1  0  0  0
  3  4  1  0  0  0
  3  1  1  0  0  0
  4 11  1  0  0  0
  5 11  1  0  0  0
  5 12  1  0  0  0
  6  7  2  0  0  0
  7  8  1  0  0  0
  9  8  2  0  0  0
 10  9  1  0  0  0
 12  6  1  0  0  0
 13  5  2  0  0  0
 14  3  1  0  0  0
M  END
>  <CHROM.1>
-178.59820780,179.07611769,-0.22541091,15.93603303,-11.41531180,-10.24798235
-1.33462070,1.08537647,-1.04847135

>  <Name>
ligand.pdb

>  <RI>
3.29373e+07

>  <Rbt.Current_Directory>
/home/v/Downloads/rDock_2013.1_src/bin

>  <Rbt.Executable>
rbdock ($Id: //depot/dev/client3/rdock/2013.1/src/exe/rbdock.cxx#4 $)

>  <Rbt.Library>
libRbt.so (2013.1, Build901 2013/11/27)

>  <Rbt.Parameter_File>
/home/v/Downloads/rDock_2013.1_src/data/scripts/dock_solv.prm

>  <Rbt.Receptor>
/home/v/Desktop/r.prm

>  <SCORE>
7.49262

>  <SCORE.INTER>
8.4

>  <SCORE.INTER.CONST>
1

>  <SCORE.INTER.POLAR>
0

>  <SCORE.INTER.ROT>
3

>  <SCORE.INTER.SOLV>
0

>  <SCORE.INTER.VDW>
0

>  <SCORE.INTER.norm>
0.6

>  <SCORE.INTRA>
-0.907383

>  <SCORE.INTRA.DIHEDRAL>
-1.61578

>  <SCORE.INTRA.DIHEDRAL.0>
1.6411

>  <SCORE.INTRA.POLAR>
0

>  <SCORE.INTRA.POLAR.0>
0

>  <SCORE.INTRA.REPUL>
0

>  <SCORE.INTRA.REPUL.0>
0

>  <SCORE.INTRA.SOLV>
-0.295071

>  <SCORE.INTRA.SOLV.lig_0>
-16.0602

>  <SCORE.INTRA.VDW>
0.0480404

>  <SCORE.INTRA.VDW.0>
-0.639572

>  <SCORE.INTRA.norm>
-0.0648131

>  <SCORE.RESTR>
0

>  <SCORE.RESTR.CAVITY>
0

>  <SCORE.RESTR.norm>
0

>  <SCORE.SYSTEM>
0

>  <SCORE.SYSTEM.CONST>
0

>  <SCORE.SYSTEM.DIHEDRAL>
0

>  <SCORE.SYSTEM.SOLV>
0

>  <SCORE.SYSTEM.norm>
0

>  <SCORE.heavy>
14

>  <SCORE.norm>
0.535187

$$$$
ligand.pdb
  rDOCK(R)          3D
libRbt.so/2013.1/901 2013/11/27
 14 14  0  0  0  0  0  0  0  0999 V2000
   22.7778  -12.4463   -9.7332 C   0  0  0  0  0  0
   15.3232   -9.6688   -9.3718 C   0  0  0  0  0  0
   21.8811  -11.3921   -9.1043 C   0  0  0  0  0  0
   20.4424  -11.4476   -9.6168 C   0  0  0  0  0  0
   18.2987  -10.2749   -9.3498 C   0  0  0  0  0  0
   16.2764   -8.9583   -8.6517 C   0  0  0  0  0  0
   15.8748   -7.8741   -7.8846 C   0  0  0  0  0  0
   14.5356   -7.5174   -7.8287 C   0  0  0  0  0  0
   13.5979   -8.2163   -8.5550 C   0  0  0  0  0  0
   13.9889   -9.2904   -9.3185 C   0  0  0  0  0  0
   19.6063  -10.4119   -9.0343 N   0  0  0  0  0  0
   17.6571   -9.2724   -8.6657 N   0  0  0  0  0  0
   17.7382  -10.9889  -10.1915 O   0  0  0  0  0  0
   21.8723  -11.5420   -7.6906 O   0  0  0  0  0  0
  2 10  2  0  0  0
  2  6  1  0  0  0
  3  4  1  0  0  0
  3  1  1  0  0  0
  4 11  1  0  0  0
  5 11  1  0  0  0
  5 12  1  0  0  0
  6  7  2  0  0  0
  7  8  1  0  0  0
  9  8  2  0  0  0
 10  9  1  0  0  0
 12  6  1  0  0  0
 13  5  2  0  0  0
 14  3  1  0  0  0
M  END
>  <CHROM.1>
-178.44689586,179.83821031,0.15833818,17.98860577,-10.02772537,-8.93925998
0.32623624,0.29015741,-2.28977931

>  <Name>
ligand.pdb

>  <RI>
3.29373e+07

>  <Rbt.Current_Directory>
/home/v/Downloads/rDock_2013.1_src/bin

>  <Rbt.Executable>
rbdock ($Id: //depot/dev/client3/rdock/2013.1/src/exe/rbdock.cxx#4 $)

>  <Rbt.Library>
libRbt.so (2013.1, Build901 2013/11/27)

>  <Rbt.Parameter_File>
/home/v/Downloads/rDock_2013.1_src/data/scripts/dock_solv.prm

>  <Rbt.Receptor>
/home/v/Desktop/r.prm

>  <SCORE>
7.49231

>  <SCORE.INTER>
8.4

>  <SCORE.INTER.CONST>
1

>  <SCORE.INTER.POLAR>
0

>  <SCORE.INTER.ROT>
3

>  <SCORE.INTER.SOLV>
0

>  <SCORE.INTER.VDW>
0

>  <SCORE.INTER.norm>
0.6

>  <SCORE.INTRA>
-0.907692

>  <SCORE.INTRA.DIHEDRAL>
-1.61429

>  <SCORE.INTRA.DIHEDRAL.0>
1.6411

>  <SCORE.INTRA.POLAR>
0

>  <SCORE.INTRA.POLAR.0>
0

>  <SCORE.INTRA.REPUL>
0

>  <SCORE.INTRA.REPUL.0>
0

>  <SCORE.INTRA.SOLV>
-0.294721

>  <SCORE.INTRA.SOLV.lig_0>
-16.0602

>  <SCORE.INTRA.VDW>
0.0468121

>  <SCORE.INTRA.VDW.0>
-0.639572

>  <SCORE.INTRA.norm>
-0.0648351

>  <SCORE.RESTR>
0

>  <SCORE.RESTR.CAVITY>
0

>  <SCORE.RESTR.norm>
0

>  <SCORE.SYSTEM>
0

>  <SCORE.SYSTEM.CONST>
0

>  <SCORE.SYSTEM.DIHEDRAL>
0

>  <SCORE.SYSTEM.SOLV>
0

>  <SCORE.SYSTEM.norm>
0

>  <SCORE.heavy>
14

>  <SCORE.norm>
0.535165

$$$$
ligand.pdb
  rDOCK(R)          3D
libRbt.so/2013.1/901 2013/11/27
 14 14  0  0  0  0  0  0  0  0999 V2000
   16.0351  -15.4459  -11.5289 C   0  0  0  0  0  0
   14.6902   -8.7855  -15.6826 C   0  0  0  0  0  0
   15.5023  -14.0247  -11.4460 C   0  0  0  0  0  0
   15.6352  -13.2584  -12.7616 C   0  0  0  0  0  0
   15.1902  -11.0305  -13.6996 C   0  0  0  0  0  0
   14.4027   -8.7282  -14.3239 C   0  0  0  0  0  0
   13.8564   -7.5667  -13.7968 C   0  0  0  0  0  0
   13.5889   -6.4848  -14.6225 C   0  0  0  0  0  0
   13.8887   -6.5424  -15.9649 C   0  0  0  0  0  0
   14.4316   -7.6893  -16.4935 C   0  0  0  0  0  0
   15.1555  -11.8910  -12.6574 N   0  0  0  0  0  0
   14.6506   -9.7974  -13.4293 N   0  0  0  0  0  0
   15.6774  -11.3325  -14.7969 O   0  0  0  0  0  0
   14.1346  -14.0402  -11.0585 O   0  0  0  0  0  0
  2 10  2  0  0  0
  2  6  1  0  0  0
  3  4  1  0  0  0
  3  1  1  0  0  0
  4 11  1  0  0  0
  5 11  1  0  0  0
  5 12  1  0  0  0
  6  7  2  0  0  0
  7  8  1  0  0  0
  9  8  2  0  0  0
 10  9  1  0  0  0
 12  6  1  0  0  0
 13  5  2  0  0  0
 14  3  1  0  0  0
M  END
>  <CHROM.1>
-178.43827262,179.41960773,-0.00731279,14.79727614,-10.61890356,-13.66948027
-1.26798821,0.99515896,-0.73942482

>  <Name>
ligand.pdb

>  <RI>
3.29373e+07

>  <Rbt.Current_Directory>
/home/v/Downloads/rDock_2013.1_src/bin

>  <Rbt.Executable>
rbdock ($Id: //depot/dev/client3/rdock/2013.1/src/exe/rbdock.cxx#4 $)

>  <Rbt.Library>
libRbt.so (2013.1, Build901 2013/11/27)

>  <Rbt.Parameter_File>
/home/v/Downloads/rDock_2013.1_src/data/scripts/dock_solv.prm

>  <Rbt.Receptor>
/home/v/Desktop/r.prm

>  <SCORE>
7.49242

>  <SCORE.INTER>
8.4

>  <SCORE.INTER.CONST>
1

>  <SCORE.INTER.POLAR>
0

>  <SCORE.INTER.ROT>
3

>  <SCORE.INTER.SOLV>
0

>  <SCORE.INTER.VDW>
0

>  <SCORE.INTER.norm>
0.6

>  <SCORE.INTRA>
-0.907584

>  <SCORE.INTRA.DIHEDRAL>
-1.61419

>  <SCORE.INTRA.DIHEDRAL.0>
1.6411

>  <SCORE.INTRA.POLAR>
0

>  <SCORE.INTRA.POLAR.0>
0

>  <SCORE.INTRA.REPUL>
0

>  <SCORE.INTRA.REPUL.0>
0

>  <SCORE.INTRA.SOLV>
-0.295326

>  <SCORE.INTRA.SOLV.lig_0>
-16.0602

>  <SCORE.INTRA.VDW>
0.0471722

>  <SCORE.INTRA.VDW.0>
-0.639572

>  <SCORE.INTRA.norm>
-0.0648274

>  <SCORE.RESTR>
0

>  <SCORE.RESTR.CAVITY>
0

>  <SCORE.RESTR.norm>
0

>  <SCORE.SYSTEM>
0

>  <SCORE.SYSTEM.CONST>
0

>  <SCORE.SYSTEM.DIHEDRAL>
0

>  <SCORE.SYSTEM.SOLV>
0

>  <SCORE.SYSTEM.norm>
0

>  <SCORE.heavy>
14

>  <SCORE.norm>
0.535173

$$$$
ligand.pdb
  rDOCK(R)          3D
libRbt.so/2013.1/901 2013/11/27
 14 14  0  0  0  0  0  0  0  0999 V2000
   12.1602   -1.8820  -13.2637 C   0  0  0  0  0  0
   15.5632   -9.0708  -13.6629 C   0  0  0  0  0  0
   12.5783   -2.9998  -14.2052 C   0  0  0  0  0  0
   13.2920   -4.1473  -13.4915 C   0  0  0  0  0  0
   14.3808   -6.2932  -13.9930 C   0  0  0  0  0  0
   15.2008   -8.4974  -14.8761 C   0  0  0  0  0  0
   15.3958   -9.2144  -16.0480 C   0  0  0  0  0  0
   15.9322  -10.4927  -16.0021 C   0  0  0  0  0  0
   16.3022  -11.0499  -14.7990 C   0  0  0  0  0  0
   16.1134  -10.3447  -13.6343 C   0  0  0  0  0  0
   13.7078   -5.1961  -14.4071 N   0  0  0  0  0  0
   14.6478   -7.1988  -14.9897 N   0  0  0  0  0  0
   14.7315   -6.4552  -12.8169 O   0  0  0  0  0  0
   11.4399   -3.5160  -14.8825 O   0  0  0  0  0  0
  2 10  2  0  0  0
  2  6  1  0  0  0
  3  4  1  0  0  0
  3  1  1  0  0  0
  4 11  1  0  0  0
  5 11  1  0  0  0
  5 12  1  0  0  0
  6  7  2  0  0  0
  7  8  1  0  0  0
  9  8  2  0  0  0
 10  9  1  0  0  0
 12  6  1  0  0  0
 13  5  2  0  0  0
 14  3  1  0  0  0
M  END
>  <CHROM.1>
-178.91106191,178.63522498,0.44863299,14.31265469,-6.74395107,-14.33283368
-2.52110558,0.98905262,-2.14523423

>  <Name>
ligand.pdb

>  <RI>
3.29373e+07

>  <Rbt.Current_Directory>
/home/v/Downloads/rDock_2013.1_src/bin

>  <Rbt.Executable>
rbdock ($Id: //depot/dev/client3/rdock/2013.1/src/exe/rbdock.cxx#4 $)

>  <Rbt.Library>
libRbt.so (2013.1, Build901 2013/11/27)

>  <Rbt.Parameter_File>
/home/v/Downloads/rDock_2013.1_src/data/scripts/dock_solv.prm

>  <Rbt.Receptor>
/home/v/Desktop/r.prm

>  <SCORE>
7.49238

>  <SCORE.INTER>
8.4

>  <SCORE.INTER.CONST>
1

>  <SCORE.INTER.POLAR>
0

>  <SCORE.INTER.ROT>
3

>  <SCORE.INTER.SOLV>
0

>  <SCORE.INTER.VDW>
0

>  <SCORE.INTER.norm>
0.6

>  <SCORE.INTRA>
-0.907617

>  <SCORE.INTRA.DIHEDRAL>
-1.61686

>  <SCORE.INTRA.DIHEDRAL.0>
1.6411

>  <SCORE.INTRA.POLAR>
0

>  <SCORE.INTRA.POLAR.0>
0

>  <SCORE.INTRA.REPUL>
0

>  <SCORE.INTRA.REPUL.0>
0

>  <SCORE.INTRA.SOLV>
-0.294217

>  <SCORE.INTRA.SOLV.lig_0>
-16.0602

>  <SCORE.INTRA.VDW>
0.0479224

>  <SCORE.INTRA.VDW.0>
-0.639572

>  <SCORE.INTRA.norm>
-0.0648298

>  <SCORE.RESTR>
0

>  <SCORE.RESTR.CAVITY>
0

>  <SCORE.RESTR.norm>
0

>  <SCORE.SYSTEM>
0

>  <SCORE.SYSTEM.CONST>
0

>  <SCORE.SYSTEM.DIHEDRAL>
0

>  <SCORE.SYSTEM.SOLV>
0

>  <SCORE.SYSTEM.norm>
0

>  <SCORE.heavy>
14

>  <SCORE.norm>
0.53517

$$$$
ligand.pdb
  rDOCK(R)          3D
libRbt.so/2013.1/901 2013/11/27
 14 14  0  0  0  0  0  0  0  0999 V2000
   19.3990   -9.2404  -12.8524 C   0  0  0  0  0  0
   12.2782   -5.8822  -14.0476 C   0  0  0  0  0  0
   18.6523   -7.9178  -12.9148 C   0  0  0  0  0  0
   17.1776   -8.0803  -13.2818 C   0  0  0  0  0  0
   15.1790   -6.7143  -13.7074 C   0  0  0  0  0  0
   13.3408   -5.0081  -13.8506 C   0  0  0  0  0  0
   13.0970   -3.6424  -13.8245 C   0  0  0  0  0  0
   11.8050   -3.1617  -13.9788 C   0  0  0  0  0  0
   10.7586   -4.0316  -14.1875 C   0  0  0  0  0  0
   10.9932   -5.3857  -14.2161 C   0  0  0  0  0  0
   16.4833   -6.8067  -13.3638 N   0  0  0  0  0  0
   14.6807   -5.4353  -13.6856 N   0  0  0  0  0  0
   14.5018   -7.7014  -14.0231 O   0  0  0  0  0  0
   18.7443   -7.2482  -11.6641 O   0  0  0  0  0  0
  2 10  2  0  0  0
  2  6  1  0  0  0
  3  4  1  0  0  0
  3  1  1  0  0  0
  4 11  1  0  0  0
  5 11  1  0  0  0
  5 12  1  0  0  0
  6  7  2  0  0  0
  7  8  1  0  0  0
  9  8  2  0  0  0
 10  9  1  0  0  0
 12  6  1  0  0  0
 13  5  2  0  0  0
 14  3  1  0  0  0
M  END
>  <CHROM.1>
-178.84555876,178.30326016,1.16613362,14.92419538,-6.24744491,-13.50959345
0.44572344,0.31223498,-2.91743533

>  <Name>
ligand.pdb

>  <RI>
3.29373e+07

>  <Rbt.Current_Directory>
/home/v/Downloads/rDock_2013.1_src/bin

>  <Rbt.Executable>
rbdock ($Id: //depot/dev/client3/rdock/2013.1/src/exe/rbdock.cxx#4 $)

>  <Rbt.Library>
libRbt.so (2013.1, Build901 2013/11/27)

>  <Rbt.Parameter_File>
/home/v/Downloads/rDock_2013.1_src/data/scripts/dock_solv.prm

>  <Rbt.Receptor>
/home/v/Desktop/r.prm

>  <SCORE>
7.49273

>  <SCORE.INTER>
8.4

>  <SCORE.INTER.CONST>
1

>  <SCORE.INTER.POLAR>
0

>  <SCORE.INTER.ROT>
3

>  <SCORE.INTER.SOLV>
0

>  <SCORE.INTER.VDW>
0

>  <SCORE.INTER.norm>
0.6

>  <SCORE.INTRA>
-0.907274

>  <SCORE.INTRA.DIHEDRAL>
-1.61228

>  <SCORE.INTRA.DIHEDRAL.0>
1.6411

>  <SCORE.INTRA.POLAR>
0

>  <SCORE.INTRA.POLAR.0>
0

>  <SCORE.INTRA.REPUL>
0

>  <SCORE.INTRA.REPUL.0>
0

>  <SCORE.INTRA.SOLV>
-0.294924

>  <SCORE.INTRA.SOLV.lig_0>
-16.0602

>  <SCORE.INTRA.VDW>
0.0463263

>  <SCORE.INTRA.VDW.0>
-0.639572

>  <SCORE.INTRA.norm>
-0.0648053

>  <SCORE.RESTR>
0

>  <SCORE.RESTR.CAVITY>
0

>  <SCORE.RESTR.norm>
0

>  <SCORE.SYSTEM>
0

>  <SCORE.SYSTEM.CONST>
0

>  <SCORE.SYSTEM.DIHEDRAL>
0

>  <SCORE.SYSTEM.SOLV>
0

>  <SCORE.SYSTEM.norm>
0

>  <SCORE.heavy>
14

>  <SCORE.norm>
0.535195

$$$$
ligand.pdb
  rDOCK(R)          3D
libRbt.so/2013.1/901 2013/11/27
 14 14  0  0  0  0  0  0  0  0999 V2000
   15.8774   -7.3563  -15.4468 C   0  0  0  0  0  0
   14.4768   -9.0844   -7.8017 C   0  0  0  0  0  0
   15.8885   -8.4671  -14.4092 C   0  0  0  0  0  0
   15.5361   -7.9774  -13.0050 C   0  0  0  0  0  0
   15.3078   -8.8320  -10.7117 C   0  0  0  0  0  0
   14.9856  -10.1188   -8.5784 C   0  0  0  0  0  0
   15.1617  -11.3705   -8.0062 C   0  0  0  0  0  0
   14.8187  -11.5852   -6.6795 C   0  0  0  0  0  0
   14.3283  -10.5535   -5.9113 C   0  0  0  0  0  0
   14.1528   -9.3104   -6.4712 C   0  0  0  0  0  0
   15.5811   -9.0434  -12.0188 N   0  0  0  0  0  0
   15.3532   -9.9645   -9.9372 N   0  0  0  0  0  0
   15.0499   -7.7093  -10.2582 O   0  0  0  0  0  0
   14.9749   -9.4902  -14.7827 O   0  0  0  0  0  0
  2 10  2  0  0  0
  2  6  1  0  0  0
  3  4  1  0  0  0
  3  1  1  0  0  0
  4 11  1  0  0  0
  5 11  1  0  0  0
  5 12  1  0  0  0
  6  7  2  0  0  0
  7  8  1  0  0  0
  9  8  2  0  0  0
 10  9  1  0  0  0
 12  6  1  0  0  0
 13  5  2  0  0  0
 14  3  1  0  0  0
M  END
>  <CHROM.1>
-178.65773106,179.80287212,1.14326593,15.11737420,-9.29608987,-10.43926736
0.60866943,1.41776751,-0.33671162

>  <Name>
ligand.pdb

>  <RI>
3.29373e+07

>  <Rbt.Current_Directory>
/home/v/Downloads/rDock_2013.1_src/bin

>  <Rbt.Executable>
rbdock ($Id: //depot/dev/client3/rdock/2013.1/src/exe/rbdock.cxx#4 $)

>  <Rbt.Library>
libRbt.so (2013.1, Build901 2013/11/27)

>  <Rbt.Parameter_File>
/home/v/Downloads/rDock_2013.1_src/data/scripts/dock_solv.prm

>  <Rbt.Receptor>
/home/v/Desktop/r.prm

>  <SCORE>
7.4921

>  <SCORE.INTER>
8.4

>  <SCORE.INTER.CONST>
1

>  <SCORE.INTER.POLAR>
0

>  <SCORE.INTER.ROT>
3

>  <SCORE.INTER.SOLV>
0

>  <SCORE.INTER.VDW>
0

>  <SCORE.INTER.norm>
0.6

>  <SCORE.INTRA>
-0.907895

>  <SCORE.INTRA.DIHEDRAL>
-1.6129

>  <SCORE.INTRA.DIHEDRAL.0>
1.6411

>  <SCORE.INTRA.POLAR>
0

>  <SCORE.INTRA.POLAR.0>
0

>  <SCORE.INTRA.REPUL>
0

>  <SCORE.INTRA.REPUL.0>
0

>  <SCORE.INTRA.SOLV>
-0.293834

>  <SCORE.INTRA.SOLV.lig_0>
-16.0602

>  <SCORE.INTRA.VDW>
0.0454716

>  <SCORE.INTRA.VDW.0>
-0.639572

>  <SCORE.INTRA.norm>
-0.0648497

>  <SCORE.RESTR>
0

>  <SCORE.RESTR.CAVITY>
0

>  <SCORE.RESTR.norm>
0

>  <SCORE.SYSTEM>
0

>  <SCORE.SYSTEM.CONST>
0

>  <SCORE.SYSTEM.DIHEDRAL>
0

>  <SCORE.SYSTEM.SOLV>
0

>  <SCORE.SYSTEM.norm>
0

>  <SCORE.heavy>
14

>  <SCORE.norm>
0.53515

$$$$
ligand.pdb
  rDOCK(R)          3D
libRbt.so/2013.1/901 2013/11/27
 14 14  0  0  0  0  0  0  0  0999 V2000
   21.4098  -10.7779  -11.0961 C   0  0  0  0  0  0
   15.8295  -11.0596   -5.4233 C   0  0  0  0  0  0
   20.7221   -9.9823   -9.9984 C   0  0  0  0  0  0
   19.5817  -10.7485   -9.3291 C   0  0  0  0  0  0
   17.8873  -10.4540   -7.5729 C   0  0  0  0  0  0
   16.4556   -9.8320   -5.6047 C   0  0  0  0  0  0
   16.1286   -8.7757   -4.7664 C   0  0  0  0  0  0
   15.1989   -8.9525   -3.7524 C   0  0  0  0  0  0
   14.5718  -10.1667   -3.5863 C   0  0  0  0  0  0
   14.8897  -11.2170   -4.4142 C   0  0  0  0  0  0
   18.9139   -9.9647   -8.3041 N   0  0  0  0  0  0
   17.4129   -9.5880   -6.6192 N   0  0  0  0  0  0
   17.4147  -11.5828   -7.7601 O   0  0  0  0  0  0
   21.6679   -9.6051   -9.0062 O   0  0  0  0  0  0
  2 10  2  0  0  0
  2  6  1  0  0  0
  3  4  1  0  0  0
  3  1  1  0  0  0
  4 11  1  0  0  0
  5 11  1  0  0  0
  5 12  1  0  0  0
  6  7  2  0  0  0
  7  8  1  0  0  0
  9  8  2  0  0  0
 10  9  1  0  0  0
 12  6  1  0  0  0
 13  5  2  0  0  0
 14  3  1  0  0  0
M  END
>  <CHROM.1>
-178.64782154,-179.11276853,0.18761704,17.83618498,-10.21114427,-7.05550636
0.48078489,-0.64665522,-2.48222131

>  <Name>
ligand.pdb

>  <RI>
3.29373e+07

>  <Rbt.Current_Directory>
/home/v/Downloads/rDock_2013.1_src/bin

>  <Rbt.Executable>
rbdock ($Id: //depot/dev/client3/rdock/2013.1/src/exe/rbdock.cxx#4 $)

>  <Rbt.Library>
libRbt.so (2013.1, Build901 2013/11/27)

>  <Rbt.Parameter_File>
/home/v/Downloads/rDock_2013.1_src/data/scripts/dock_solv.prm

>  <Rbt.Receptor>
/home/v/Desktop/r.prm

>  <SCORE>
7.4929

>  <SCORE.INTER>
8.4

>  <SCORE.INTER.CONST>
1

>  <SCORE.INTER.POLAR>
0

>  <SCORE.INTER.ROT>
3

>  <SCORE.INTER.SOLV>
0

>  <SCORE.INTER.VDW>
0

>  <SCORE.INTER.norm>
0.6

>  <SCORE.INTRA>
-0.907101

>  <SCORE.INTRA.DIHEDRAL>
-1.61587

>  <SCORE.INTRA.DIHEDRAL.0>
1.6411

>  <SCORE.INTRA.POLAR>
0

>  <SCORE.INTRA.POLAR.0>
0

>  <SCORE.INTRA.REPUL>
0

>  <SCORE.INTRA.REPUL.0>
0

>  <SCORE.INTRA.SOLV>
-0.292349

>  <SCORE.INTRA.SOLV.lig_0>
-16.0602

>  <SCORE.INTRA.VDW>
0.0470081

>  <SCORE.INTRA.VDW.0>
-0.639572

>  <SCORE.INTRA.norm>
-0.0647929

>  <SCORE.RESTR>
0

>  <SCORE.RESTR.CAVITY>
0

>  <SCORE.RESTR.norm>
0

>  <SCORE.SYSTEM>
0

>  <SCORE.SYSTEM.CONST>
0

>  <SCORE.SYSTEM.DIHEDRAL>
0

>  <SCORE.SYSTEM.SOLV>
0

>  <SCORE.SYSTEM.norm>
0

>  <SCORE.heavy>
14

>  <SCORE.norm>
0.535207

$$$$
ligand.pdb
  rDOCK(R)          3D
libRbt.so/2013.1/901 2013/11/27
 14 14  0  0  0  0  0  0  0  0999 V2000
   21.4202  -14.2501   -9.0450 C   0  0  0  0  0  0
   17.9641   -8.3938  -13.1898 C   0  0  0  0  0  0
   21.0558  -12.7743   -9.0302 C   0  0  0  0  0  0
   20.3913  -12.3093  -10.3254 C   0  0  0  0  0  0
   19.5148  -10.2620  -11.3658 C   0  0  0  0  0  0
   18.5503   -8.0264  -11.9842 C   0  0  0  0  0  0
   18.4545   -6.7090  -11.5594 C   0  0  0  0  0  0
   17.7684   -5.7777  -12.3249 C   0  0  0  0  0  0
   17.2019   -6.1442  -13.5248 C   0  0  0  0  0  0
   17.2943   -7.4473  -13.9526 C   0  0  0  0  0  0
   20.0906  -10.8879  -10.3147 N   0  0  0  0  0  0
   19.2623   -8.9288  -11.1572 N   0  0  0  0  0  0
   19.2506  -10.8454  -12.4252 O   0  0  0  0  0  0
   20.1840  -12.4999   -7.9413 O   0  0  0  0  0  0
  2 10  2  0  0  0
  2  6  1  0  0  0
  3  4  1  0  0  0
  3  1  1  0  0  0
  4 11  1  0  0  0
  5 11  1  0  0  0
  5 12  1  0  0  0
  6  7  2  0  0  0
  7  8  1  0  0  0
  9  8  2  0  0  0
 10  9  1  0  0  0
 12  6  1  0  0  0
 13  5  2  0  0  0
 14  3  1  0  0  0
M  END
>  <CHROM.1>
-178.01662275,179.24037157,0.59491715,19.22549849,-9.79421611,-11.22243516
0.15899897,1.16689141,-2.29818835

>  <Name>
ligand.pdb

>  <RI>
3.29373e+07

>  <Rbt.Current_Directory>
/home/v/Downloads/rDock_2013.1_src/bin

>  <Rbt.Executable>
rbdock ($Id: //depot/dev/client3/rdock/2013.1/src/exe/rbdock.cxx#4 $)

>  <Rbt.Library>
libRbt.so (2013.1, Build901 2013/11/27)

>  <Rbt.Parameter_File>
/home/v/Downloads/rDock_2013.1_src/data/scripts/dock_solv.prm

>  <Rbt.Receptor>
/home/v/Desktop/r.prm

>  <SCORE>
7.49288

>  <SCORE.INTER>
8.4

>  <SCORE.INTER.CONST>
1

>  <SCORE.INTER.POLAR>
0

>  <SCORE.INTER.ROT>
3

>  <SCORE.INTER.SOLV>
0

>  <SCORE.INTER.VDW>
0

>  <SCORE.INTER.norm>
0.6

>  <SCORE.INTRA>
-0.907123

>  <SCORE.INTRA.DIHEDRAL>
-1.60681

>  <SCORE.INTRA.DIHEDRAL.0>
1.6411

>  <SCORE.INTRA.POLAR>
0

>  <SCORE.INTRA.POLAR.0>
0

>  <SCORE.INTRA.REPUL>
0

>  <SCORE.INTRA.REPUL.0>
0

>  <SCORE.INTRA.SOLV>
-0.297431

>  <SCORE.INTRA.SOLV.lig_0>
-16.0602

>  <SCORE.INTRA.VDW>
0.0449992

>  <SCORE.INTRA.VDW.0>
-0.639572

>  <SCORE.INTRA.norm>
-0.0647945

>  <SCORE.RESTR>
0

>  <SCORE.RESTR.CAVITY>
0

>  <SCORE.RESTR.norm>
0

>  <SCORE.SYSTEM>
0

>  <SCORE.SYSTEM.CONST>
0

>  <SCORE.SYSTEM.DIHEDRAL>
0

>  <SCORE.SYSTEM.SOLV>
0

>  <SCORE.SYSTEM.norm>
0

>  <SCORE.heavy>
14

>  <SCORE.norm>
0.535205

$$$$
ligand.pdb
  rDOCK(R)          3D
libRbt.so/2013.1/901 2013/11/27
 14 14  0  0  0  0  0  0  0  0999 V2000
   13.9353   -5.4099   -8.6909 C   0  0  0  0  0  0
   19.8264  -10.2783  -10.9249 C   0  0  0  0  0  0
   14.3379   -6.4872   -9.6849 C   0  0  0  0  0  0
   15.7929   -6.9288   -9.5317 C   0  0  0  0  0  0
   17.4096   -8.4795  -10.5433 C   0  0  0  0  0  0
   18.6788  -10.3076  -11.7085 C   0  0  0  0  0  0
   18.6040  -11.2043  -12.7648 C   0  0  0  0  0  0
   19.6581  -12.0684  -13.0218 C   0  0  0  0  0  0
   20.7979  -12.0251  -12.2509 C   0  0  0  0  0  0
   20.8794  -11.1382  -11.2039 C   0  0  0  0  0  0
   16.1705   -7.9401  -10.5042 N   0  0  0  0  0  0
   17.5691   -9.4537  -11.4973 N   0  0  0  0  0  0
   18.3194   -8.1141   -9.7875 O   0  0  0  0  0  0
   13.4945   -7.6224   -9.5394 O   0  0  0  0  0  0
  2 10  2  0  0  0
  2  6  1  0  0  0
  3  4  1  0  0  0
  3  1  1  0  0  0
  4 11  1  0  0  0
  5 11  1  0  0  0
  5 12  1  0  0  0
  6  7  2  0  0  0
  7  8  1  0  0  0
  9  8  2  0  0  0
 10  9  1  0  0  0
 12  6  1  0  0  0
 13  5  2  0  0  0
 14  3  1  0  0  0
M  END
>  <CHROM.1>
-178.91232735,-179.52609988,0.37047329,17.42375807,-9.00788989,-10.76518502
-2.38076354,0.19598721,-2.42208389

>  <Name>
ligand.pdb

>  <RI>
3.29373e+07

>  <Rbt.Current_Directory>
/home/v/Downloads/rDock_2013.1_src/bin

>  <Rbt.Executable>
rbdock ($Id: //depot/dev/client3/rdock/2013.1/src/exe/rbdock.cxx#4 $)

>  <Rbt.Library>
libRbt.so (2013.1, Build901 2013/11/27)

>  <Rbt.Parameter_File>
/home/v/Downloads/rDock_2013.1_src/data/scripts/dock_solv.prm

>  <Rbt.Receptor>
/home/v/Desktop/r.prm

>  <SCORE>
7.49247

>  <SCORE.INTER>
8.4

>  <SCORE.INTER.CONST>
1

>  <SCORE.INTER.POLAR>
0

>  <SCORE.INTER.ROT>
3

>  <SCORE.INTER.SOLV>
0

>  <SCORE.INTER.VDW>
0

>  <SCORE.INTER.norm>
0.6

>  <SCORE.INTRA>
-0.907532

>  <SCORE.INTRA.DIHEDRAL>
-1.61844

>  <SCORE.INTRA.DIHEDRAL.0>
1.6411

>  <SCORE.INTRA.POLAR>
0

>  <SCORE.INTRA.POLAR.0>
0

>  <SCORE.INTRA.REPUL>
0

>  <SCORE.INTRA.REPUL.0>
0

>  <SCORE.INTRA.SOLV>
-0.291768

>  <SCORE.INTRA.SOLV.lig_0>
-16.0602

>  <SCORE.INTRA.VDW>
0.0475731

>  <SCORE.INTRA.VDW.0>
-0.639572

>  <SCORE.INTRA.norm>
-0.0648237

>  <SCORE.RESTR>
0

>  <SCORE.RESTR.CAVITY>
0

>  <SCORE.RESTR.norm>
0

>  <SCORE.SYSTEM>
0

>  <SCORE.SYSTEM.CONST>
0

>  <SCORE.SYSTEM.DIHEDRAL>
0

>  <SCORE.SYSTEM.SOLV>
0

>  <SCORE.SYSTEM.norm>
0

>  <SCORE.heavy>
14

>  <SCORE.norm>
0.535176

$$$$
ligand.pdb
  rDOCK(R)          3D
libRbt.so/2013.1/901 2013/11/27
 14 14  0  0  0  0  0  0  0  0999 V2000
   13.4243  -14.4586   -6.0711 C   0  0  0  0  0  0
   14.3584   -8.3614  -11.1072 C   0  0  0  0  0  0
   13.9638  -14.0535   -7.4333 C   0  0  0  0  0  0
   13.6925  -12.5883   -7.7725 C   0  0  0  0  0  0
   14.0549  -10.9754   -9.5916 C   0  0  0  0  0  0
   14.7940   -9.6011  -11.5602 C   0  0  0  0  0  0
   15.4053   -9.6904  -12.8027 C   0  0  0  0  0  0
   15.5901   -8.5513  -13.5723 C   0  0  0  0  0  0
   15.1440   -7.3284  -13.1244 C   0  0  0  0  0  0
   14.5361   -7.2329  -11.8952 C   0  0  0  0  0  0
   14.1973  -12.2206   -9.0843 N   0  0  0  0  0  0
   14.6364  -10.7996  -10.8227 N   0  0  0  0  0  0
   13.4428  -10.0794   -8.9957 O   0  0  0  0  0  0
   15.3650  -14.2874   -7.4902 O   0  0  0  0  0  0
  2 10  2  0  0  0
  2  6  1  0  0  0
  3  4  1  0  0  0
  3  1  1  0  0  0
  4 11  1  0  0  0
  5 11  1  0  0  0
  5 12  1  0  0  0
  6  7  2  0  0  0
  7  8  1  0  0  0
  9  8  2  0  0  0
 10  9  1  0  0  0
 12  6  1  0  0  0
 13  5  2  0  0  0
 14  3  1  0  0  0
M  END
>  <CHROM.1>
-179.20671764,179.38337254,0.26122593,14.45444652,-10.83769213,-9.97560410
1.76490000,-0.90427301,2.53118010

>  <Name>
ligand.pdb

>  <RI>
3.29373e+07

>  <Rbt.Current_Directory>
/home/v/Downloads/rDock_2013.1_src/bin

>  <Rbt.Executable>
rbdock ($Id: //depot/dev/client3/rdock/2013.1/src/exe/rbdock.cxx#4 $)

>  <Rbt.Library>
libRbt.so (2013.1, Build901 2013/11/27)

>  <Rbt.Parameter_File>
/home/v/Downloads/rDock_2013.1_src/data/scripts/dock_solv.prm

>  <Rbt.Receptor>
/home/v/Desktop/r.prm

>  <SCORE>
7.49255

>  <SCORE.INTER>
8.4

>  <SCORE.INTER.CONST>
1

>  <SCORE.INTER.POLAR>
0

>  <SCORE.INTER.ROT>
3

>  <SCORE.INTER.SOLV>
0

>  <SCORE.INTER.VDW>
0

>  <SCORE.INTER.norm>
0.6

>  <SCORE.INTRA>
-0.907447

>  <SCORE.INTRA.DIHEDRAL>
-1.62083

>  <SCORE.INTRA.DIHEDRAL.0>
1.6411

>  <SCORE.INTRA.POLAR>
0

>  <SCORE.INTRA.POLAR.0>
0

>  <SCORE.INTRA.REPUL>
0

>  <SCORE.INTRA.REPUL.0>
0

>  <SCORE.INTRA.SOLV>
-0.29195

>  <SCORE.INTRA.SOLV.lig_0>
-16.0602

>  <SCORE.INTRA.VDW>
0.0489404

>  <SCORE.INTRA.VDW.0>
-0.639572

>  <SCORE.INTRA.norm>
-0.0648177

>  <SCORE.RESTR>
0

>  <SCORE.RESTR.CAVITY>
0

>  <SCORE.RESTR.norm>
0

>  <SCORE.SYSTEM>
0

>  <SCORE.SYSTEM.CONST>
0

>  <SCORE.SYSTEM.DIHEDRAL>
0

>  <SCORE.SYSTEM.SOLV>
0

>  <SCORE.SYSTEM.norm>
0

>  <SCORE.heavy>
14

>  <SCORE.norm>
0.535182

$$$$
ligand.pdb
  rDOCK(R)          3D
libRbt.so/2013.1/901 2013/11/27
 14 14  0  0  0  0  0  0  0  0999 V2000
   18.2610   -7.1672   -4.8154 C   0  0  0  0  0  0
   15.0139  -10.7271  -11.1540 C   0  0  0  0  0  0
   16.9804   -7.7636   -5.3767 C   0  0  0  0  0  0
   17.1222   -8.2287   -6.8256 C   0  0  0  0  0  0
   15.7806   -9.2332   -8.6236 C   0  0  0  0  0  0
   14.1469  -10.4320  -10.1084 C   0  0  0  0  0  0
   12.8166  -10.8145  -10.2045 C   0  0  0  0  0  0
   12.3663  -11.4957  -11.3257 C   0  0  0  0  0  0
   13.2264  -11.7729  -12.3642 C   0  0  0  0  0  0
   14.5452  -11.3955  -12.2764 C   0  0  0  0  0  0
   15.8810   -8.7621   -7.3603 N   0  0  0  0  0  0
   14.5446   -9.7413   -8.9380 N   0  0  0  0  0  0
   16.7234   -9.1966   -9.4251 O   0  0  0  0  0  0
   16.5662   -8.8645   -4.5783 O   0  0  0  0  0  0
  2 10  2  0  0  0
  2  6  1  0  0  0
  3  4  1  0  0  0
  3  1  1  0  0  0
  4 11  1  0  0  0
  5 11  1  0  0  0
  5 12  1  0  0  0
  6  7  2  0  0  0
  7  8  1  0  0  0
  9  8  2  0  0  0
 10  9  1  0  0  0
 12  6  1  0  0  0
 13  5  2  0  0  0
 14  3  1  0  0  0
M  END
>  <CHROM.1>
-178.40309047,-179.86662462,1.16539435,15.37005966,-9.62466545,-8.69080446
-1.03147868,-0.39517776,-1.83755411

>  <Name>
ligand.pdb

>  <RI>
3.29373e+07

>  <Rbt.Current_Directory>
/home/v/Downloads/rDock_2013.1_src/bin

>  <Rbt.Executable>
rbdock ($Id: //depot/dev/client3/rdock/2013.1/src/exe/rbdock.cxx#4 $)

>  <Rbt.Library>
libRbt.so (2013.1, Build901 2013/11/27)

>  <Rbt.Parameter_File>
/home/v/Downloads/rDock_2013.1_src/data/scripts/dock_solv.prm

>  <Rbt.Receptor>
/home/v/Desktop/r.prm

>  <SCORE>
7.49241

>  <SCORE.INTER>
8.4

>  <SCORE.INTER.CONST>
1

>  <SCORE.INTER.POLAR>
0

>  <SCORE.INTER.ROT>
3

>  <SCORE.INTER.SOLV>
0

>  <SCORE.INTER.VDW>
0

>  <SCORE.INTER.norm>
0.6

>  <SCORE.INTRA>
-0.907586

>  <SCORE.INTRA.DIHEDRAL>
-1.60989

>  <SCORE.INTRA.DIHEDRAL.0>
1.6411

>  <SCORE.INTRA.POLAR>
0

>  <SCORE.INTRA.POLAR.0>
0

>  <SCORE.INTRA.REPUL>
0

>  <SCORE.INTRA.REPUL.0>
0

>  <SCORE.INTRA.SOLV>
-0.294513

>  <SCORE.INTRA.SOLV.lig_0>
-16.0602

>  <SCORE.INTRA.VDW>
0.0446136

>  <SCORE.INTRA.VDW.0>
-0.639572

>  <SCORE.INTRA.norm>
-0.0648276

>  <SCORE.RESTR>
0

>  <SCORE.RESTR.CAVITY>
0

>  <SCORE.RESTR.norm>
0

>  <SCORE.SYSTEM>
0

>  <SCORE.SYSTEM.CONST>
0

>  <SCORE.SYSTEM.DIHEDRAL>
0

>  <SCORE.SYSTEM.SOLV>
0

>  <SCORE.SYSTEM.norm>
0

>  <SCORE.heavy>
14

>  <SCORE.norm>
0.535172

$$$$
ligand.pdb
  rDOCK(R)          3D
libRbt.so/2013.1/901 2013/11/27
 14 14  0  0  0  0  0  0  0  0999 V2000
   16.2447   -7.8935   -5.6444 C   0  0  0  0  0  0
   15.6886   -8.3620  -13.5727 C   0  0  0  0  0  0
   15.3159   -8.2278   -6.8003 C   0  0  0  0  0  0
   15.9492   -7.9769   -8.1684 C   0  0  0  0  0  0
   15.3973   -8.1300  -10.5587 C   0  0  0  0  0  0
   14.5199   -8.6114  -12.8628 C   0  0  0  0  0  0
   13.3731   -8.9746  -13.5545 C   0  0  0  0  0  0
   13.4022   -9.1001  -14.9355 C   0  0  0  0  0  0
   14.5590   -8.8382  -15.6344 C   0  0  0  0  0  0
   15.6983   -8.4763  -14.9558 C   0  0  0  0  0  0
   15.0402   -8.2729   -9.2625 N   0  0  0  0  0  0
   14.4255   -8.5022  -11.4542 N   0  0  0  0  0  0
   16.5032   -7.6910  -10.9006 O   0  0  0  0  0  0
   14.9132   -9.5890   -6.7222 O   0  0  0  0  0  0
  2 10  2  0  0  0
  2  6  1  0  0  0
  3  4  1  0  0  0
  3  1  1  0  0  0
  4 11  1  0  0  0
  5 11  1  0  0  0
  5 12  1  0  0  0
  6  7  2  0  0  0
  7  8  1  0  0  0
  9  8  2  0  0  0
 10  9  1  0  0  0
 12  6  1  0  0  0
 13  5  2  0  0  0
 14  3  1  0  0  0
M  END
>  <CHROM.1>
-178.73498743,-179.54721794,1.15294156,15.10803573,-8.47130659,-10.91617027
-1.40803023,-0.48482858,-1.54022939

>  <Name>
ligand.pdb

>  <RI>
3.29373e+07

>  <Rbt.Current_Directory>
/home/v/Downloads/rDock_2013.1_src/bin

>  <Rbt.Executable>
rbdock ($Id: //depot/dev/client3/rdock/2013.1/src/exe/rbdock.cxx#4 $)

>  <Rbt.Library>
libRbt.so (2013.1, Build901 2013/11/27)

>  <Rbt.Parameter_File>
/home/v/Downloads/rDock_2013.1_src/data/scripts/dock_solv.prm

>  <Rbt.Receptor>
/home/v/Desktop/r.prm

>  <SCORE>
7.49243

>  <SCORE.INTER>
8.4

>  <SCORE.INTER.CONST>
1

>  <SCORE.INTER.POLAR>
0

>  <SCORE.INTER.ROT>
3

>  <SCORE.INTER.SOLV>
0

>  <SCORE.INTER.VDW>
0

>  <SCORE.INTER.norm>
0.6

>  <SCORE.INTRA>
-0.907565

>  <SCORE.INTRA.DIHEDRAL>
-1.6135

>  <SCORE.INTRA.DIHEDRAL.0>
1.6411

>  <SCORE.INTRA.POLAR>
0

>  <SCORE.INTRA.POLAR.0>
0

>  <SCORE.INTRA.REPUL>
0

>  <SCORE.INTRA.REPUL.0>
0

>  <SCORE.INTRA.SOLV>
-0.292591

>  <SCORE.INTRA.SOLV.lig_0>
-16.0602

>  <SCORE.INTRA.VDW>
0.0454782

>  <SCORE.INTRA.VDW.0>
-0.639572

>  <SCORE.INTRA.norm>
-0.0648261

>  <SCORE.RESTR>
0

>  <SCORE.RESTR.CAVITY>
0

>  <SCORE.RESTR.norm>
0

>  <SCORE.SYSTEM>
0

>  <SCORE.SYSTEM.CONST>
0

>  <SCORE.SYSTEM.DIHEDRAL>
0

>  <SCORE.SYSTEM.SOLV>
0

>  <SCORE.SYSTEM.norm>
0

>  <SCORE.heavy>
14

>  <SCORE.norm>
0.535174

$$$$
ligand.pdb
  rDOCK(R)          3D
libRbt.so/2013.1/901 2013/11/27
 14 14  0  0  0  0  0  0  0  0999 V2000
   21.7796   -8.1598  -10.3847 C   0  0  0  0  0  0
   14.2881   -9.7383  -12.5809 C   0  0  0  0  0  0
   20.7826   -9.2728  -10.6635 C   0  0  0  0  0  0
   19.3912   -8.7532  -11.0238 C   0  0  0  0  0  0
   17.1449   -9.5942  -11.5611 C   0  0  0  0  0  0
   15.0781  -10.8371  -12.2638 C   0  0  0  0  0  0
   14.5498  -12.1126  -12.4034 C   0  0  0  0  0  0
   13.2541  -12.2835  -12.8680 C   0  0  0  0  0  0
   12.4717  -11.1911  -13.1672 C   0  0  0  0  0  0
   12.9881   -9.9246  -13.0297 C   0  0  0  0  0  0
   18.4399   -9.8277  -11.2504 N   0  0  0  0  0  0
   16.4069  -10.7296  -11.7866 N   0  0  0  0  0  0
   16.6706   -8.4525  -11.6247 O   0  0  0  0  0  0
   21.2554  -10.0948  -11.7227 O   0  0  0  0  0  0
  2 10  2  0  0  0
  2  6  1  0  0  0
  3  4  1  0  0  0
  3  1  1  0  0  0
  4 11  1  0  0  0
  5 11  1  0  0  0
  5 12  1  0  0  0
  6  7  2  0  0  0
  7  8  1  0  0  0
  9  8  2  0  0  0
 10  9  1  0  0  0
 12  6  1  0  0  0
 13  5  2  0  0  0
 14  3  1  0  0  0
M  END
>  <CHROM.1>
-178.36315090,178.96780599,-0.43736923,16.89972081,-10.01815187,-11.84992298
0.30125512,-0.20473923,0.16209091

>  <Name>
ligand.pdb

>  <RI>
3.29373e+07

>  <Rbt.Current_Directory>
/home/v/Downloads/rDock_2013.1_src/bin

>  <Rbt.Executable>
rbdock ($Id: //depot/dev/client3/rdock/2013.1/src/exe/rbdock.cxx#4 $)

>  <Rbt.Library>
libRbt.so (2013.1, Build901 2013/11/27)

>  <Rbt.Parameter_File>
/home/v/Downloads/rDock_2013.1_src/data/scripts/dock_solv.prm

>  <Rbt.Receptor>
/home/v/Desktop/r.prm

>  <SCORE>
7.49315

>  <SCORE.INTER>
8.4

>  <SCORE.INTER.CONST>
1

>  <SCORE.INTER.POLAR>
0

>  <SCORE.INTER.ROT>
3

>  <SCORE.INTER.SOLV>
0

>  <SCORE.INTER.VDW>
0

>  <SCORE.INTER.norm>
0.6

>  <SCORE.INTRA>
-0.906846

>  <SCORE.INTRA.DIHEDRAL>
-1.61283

>  <SCORE.INTRA.DIHEDRAL.0>
1.6411

>  <SCORE.INTRA.POLAR>
0

>  <SCORE.INTRA.POLAR.0>
0

>  <SCORE.INTRA.REPUL>
0

>  <SCORE.INTRA.REPUL.0>
0

>  <SCORE.INTRA.SOLV>
-0.296268

>  <SCORE.INTRA.SOLV.lig_0>
-16.0602

>  <SCORE.INTRA.VDW>
0.0477052

>  <SCORE.INTRA.VDW.0>
-0.639572

>  <SCORE.INTRA.norm>
-0.0647747

>  <SCORE.RESTR>
0

>  <SCORE.RESTR.CAVITY>
0

>  <SCORE.RESTR.norm>
0

>  <SCORE.SYSTEM>
0

>  <SCORE.SYSTEM.CONST>
0

>  <SCORE.SYSTEM.DIHEDRAL>
0

>  <SCORE.SYSTEM.SOLV>
0

>  <SCORE.SYSTEM.norm>
0

>  <SCORE.heavy>
14

>  <SCORE.norm>
0.535225

$$$$
ligand.pdb
  rDOCK(R)          3D
libRbt.so/2013.1/901 2013/11/27
 14 14  0  0  0  0  0  0  0  0999 V2000
    8.2336   -6.6209  -10.6068 C   0  0  0  0  0  0
   15.2270   -9.5850  -13.0029 C   0  0  0  0  0  0
    9.7278   -6.3525  -10.6834 C   0  0  0  0  0  0
   10.5138   -7.5138  -11.2912 C   0  0  0  0  0  0
   12.8298   -8.1632  -11.7970 C   0  0  0  0  0  0
   15.2735   -8.3618  -12.3444 C   0  0  0  0  0  0
   16.4941   -7.7181  -12.1990 C   0  0  0  0  0  0
   17.6479   -8.2856  -12.7192 C   0  0  0  0  0  0
   17.5978   -9.5039  -13.3581 C   0  0  0  0  0  0
   16.3923  -10.1479  -13.5044 C   0  0  0  0  0  0
   11.9438   -7.2589  -11.3225 N   0  0  0  0  0  0
   14.1325   -7.7301  -11.7928 N   0  0  0  0  0  0
   12.4892   -9.2866  -12.1901 O   0  0  0  0  0  0
    9.9724   -5.1803  -11.4497 O   0  0  0  0  0  0
  2 10  2  0  0  0
  2  6  1  0  0  0
  3  4  1  0  0  0
  3  1  1  0  0  0
  4 11  1  0  0  0
  5 11  1  0  0  0
  5 12  1  0  0  0
  6  7  2  0  0  0
  7  8  1  0  0  0
  9  8  2  0  0  0
 10  9  1  0  0  0
 12  6  1  0  0  0
 13  5  2  0  0  0
 14  3  1  0  0  0
M  END
>  <CHROM.1>
-178.33613752,178.77665589,-0.21573167,13.31166797,-7.93116811,-11.98844919
2.74645785,0.16734557,0.26370879

>  <Name>
ligand.pdb

>  <RI>
3.29373e+07

>  <Rbt.Current_Directory>
/home/v/Downloads/rDock_2013.1_src/bin

>  <Rbt.Executable>
rbdock ($Id: //depot/dev/client3/rdock/2013.1/src/exe/rbdock.cxx#4 $)

>  <Rbt.Library>
libRbt.so (2013.1, Build901 2013/11/27)

>  <Rbt.Parameter_File>
/home/v/Downloads/rDock_2013.1_src/data/scripts/dock_solv.prm

>  <Rbt.Receptor>
/home/v/Desktop/r.prm

>  <SCORE>
7.49299

>  <SCORE.INTER>
8.4

>  <SCORE.INTER.CONST>
1

>  <SCORE.INTER.POLAR>
0

>  <SCORE.INTER.ROT>
3

>  <SCORE.INTER.SOLV>
0

>  <SCORE.INTER.VDW>
0

>  <SCORE.INTER.norm>
0.6

>  <SCORE.INTRA>
-0.907014

>  <SCORE.INTRA.DIHEDRAL>
-1.61214

>  <SCORE.INTRA.DIHEDRAL.0>
1.6411

>  <SCORE.INTRA.POLAR>
0

>  <SCORE.INTRA.POLAR.0>
0

>  <SCORE.INTRA.REPUL>
0

>  <SCORE.INTRA.REPUL.0>
0

>  <SCORE.INTRA.SOLV>
-0.296621

>  <SCORE.INTRA.SOLV.lig_0>
-16.0602

>  <SCORE.INTRA.VDW>
0.0473649

>  <SCORE.INTRA.VDW.0>
-0.639572

>  <SCORE.INTRA.norm>
-0.0647867

>  <SCORE.RESTR>
0

>  <SCORE.RESTR.CAVITY>
0

>  <SCORE.RESTR.norm>
0

>  <SCORE.SYSTEM>
0

>  <SCORE.SYSTEM.CONST>
0

>  <SCORE.SYSTEM.DIHEDRAL>
0

>  <SCORE.SYSTEM.SOLV>
0

>  <SCORE.SYSTEM.norm>
0

>  <SCORE.heavy>
14

>  <SCORE.norm>
0.535213

$$$$
ligand.pdb
  rDOCK(R)          3D
libRbt.so/2013.1/901 2013/11/27
 14 14  0  0  0  0  0  0  0  0999 V2000
   19.5783   -6.7847   -7.5583 C   0  0  0  0  0  0
   12.8701  -10.9227   -8.6867 C   0  0  0  0  0  0
   18.9791   -8.1812   -7.5954 C   0  0  0  0  0  0
   17.4661   -8.1773   -7.8110 C   0  0  0  0  0  0
   15.5835   -9.7469   -7.9960 C   0  0  0  0  0  0
   13.9893  -11.6610   -8.3204 C   0  0  0  0  0  0
   13.8901  -13.0424   -8.2360 C   0  0  0  0  0  0
   12.6908  -13.6745   -8.5291 C   0  0  0  0  0  0
   11.5819  -12.9370   -8.8777 C   0  0  0  0  0  0
   11.6725  -11.5680   -8.9617 C   0  0  0  0  0  0
   16.9026   -9.5165   -7.8091 N   0  0  0  0  0  0
   15.2412  -11.0763   -8.0104 N   0  0  0  0  0  0
   14.7602   -8.8324   -8.1315 O   0  0  0  0  0  0
   19.5892   -8.9446   -8.6279 O   0  0  0  0  0  0
  2 10  2  0  0  0
  2  6  1  0  0  0
  3  4  1  0  0  0
  3  1  1  0  0  0
  4 11  1  0  0  0
  5 11  1  0  0  0
  5 12  1  0  0  0
  6  7  2  0  0  0
  7  8  1  0  0  0
  9  8  2  0  0  0
 10  9  1  0  0  0
 12  6  1  0  0  0
 13  5  2  0  0  0
 14  3  1  0  0  0
M  END
>  <CHROM.1>
-178.48740497,-179.34338957,0.62870914,15.46888536,-10.26236963,-8.21813382
0.61683928,-0.06879058,0.07182161

>  <Name>
ligand.pdb

>  <RI>
3.29373e+07

>  <Rbt.Current_Directory>
/home/v/Downloads/rDock_2013.1_src/bin

>  <Rbt.Executable>
rbdock ($Id: //depot/dev/client3/rdock/2013.1/src/exe/rbdock.cxx#4 $)

>  <Rbt.Library>
libRbt.so (2013.1, Build901 2013/11/27)

>  <Rbt.Parameter_File>
/home/v/Downloads/rDock_2013.1_src/data/scripts/dock_solv.prm

>  <Rbt.Receptor>
/home/v/Desktop/r.prm

>  <SCORE>
7.49257

>  <SCORE.INTER>
8.4

>  <SCORE.INTER.CONST>
1

>  <SCORE.INTER.POLAR>
0

>  <SCORE.INTER.ROT>
3

>  <SCORE.INTER.SOLV>
0

>  <SCORE.INTER.VDW>
0

>  <SCORE.INTER.norm>
0.6

>  <SCORE.INTRA>
-0.907428

>  <SCORE.INTRA.DIHEDRAL>
-1.61312

>  <SCORE.INTRA.DIHEDRAL.0>
1.6411

>  <SCORE.INTRA.POLAR>
0

>  <SCORE.INTRA.POLAR.0>
0

>  <SCORE.INTRA.REPUL>
0

>  <SCORE.INTRA.REPUL.0>
0

>  <SCORE.INTRA.SOLV>
-0.293389

>  <SCORE.INTRA.SOLV.lig_0>
-16.0602

>  <SCORE.INTRA.VDW>
0.0458244

>  <SCORE.INTRA.VDW.0>
-0.639572

>  <SCORE.INTRA.norm>
-0.0648163

>  <SCORE.RESTR>
0

>  <SCORE.RESTR.CAVITY>
0

>  <SCORE.RESTR.norm>
0

>  <SCORE.SYSTEM>
0

>  <SCORE.SYSTEM.CONST>
0

>  <SCORE.SYSTEM.DIHEDRAL>
0

>  <SCORE.SYSTEM.SOLV>
0

>  <SCORE.SYSTEM.norm>
0

>  <SCORE.heavy>
14

>  <SCORE.norm>
0.535184

$$$$
ligand.pdb
  rDOCK(R)          3D
libRbt.so/2013.1/901 2013/11/27
 14 14  0  0  0  0  0  0  0  0999 V2000
   11.4515  -10.1066   -7.7120 C   0  0  0  0  0  0
   14.0120   -4.3054  -12.5280 C   0  0  0  0  0  0
   12.1885   -9.8126   -9.0086 C   0  0  0  0  0  0
   12.2342   -8.3227   -9.3460 C   0  0  0  0  0  0
   13.0624   -6.8103  -11.0977 C   0  0  0  0  0  0
   14.2250   -5.6057  -12.9706 C   0  0  0  0  0  0
   14.9025   -5.8114  -14.1639 C   0  0  0  0  0  0
   15.3722   -4.7299  -14.8944 C   0  0  0  0  0  0
   15.1461   -3.4439  -14.4581 C   0  0  0  0  0  0
   14.4742   -3.2327  -13.2777 C   0  0  0  0  0  0
   12.9139   -8.0598  -10.6029 N   0  0  0  0  0  0
   13.7724   -6.7507  -12.2711 N   0  0  0  0  0  0
   12.5872   -5.8123  -10.5403 O   0  0  0  0  0  0
   13.5187  -10.3088   -8.9348 O   0  0  0  0  0  0
  2 10  2  0  0  0
  2  6  1  0  0  0
  3  4  1  0  0  0
  3  1  1  0  0  0
  4 11  1  0  0  0
  5 11  1  0  0  0
  5 12  1  0  0  0
  6  7  2  0  0  0
  7  8  1  0  0  0
  9  8  2  0  0  0
 10  9  1  0  0  0
 12  6  1  0  0  0
 13  5  2  0  0  0
 14  3  1  0  0  0
M  END
>  <CHROM.1>
-178.64598763,179.62214048,0.84381531,13.51326228,-6.75257872,-11.44237231
2.11823683,-0.91764416,2.82114303

>  <Name>
ligand.pdb

>  <RI>
3.29373e+07

>  <Rbt.Current_Directory>
/home/v/Downloads/rDock_2013.1_src/bin

>  <Rbt.Executable>
rbdock ($Id: //depot/dev/client3/rdock/2013.1/src/exe/rbdock.cxx#4 $)

>  <Rbt.Library>
libRbt.so (2013.1, Build901 2013/11/27)

>  <Rbt.Parameter_File>
/home/v/Downloads/rDock_2013.1_src/data/scripts/dock_solv.prm

>  <Rbt.Receptor>
/home/v/Desktop/r.prm

>  <SCORE>
7.49196

>  <SCORE.INTER>
8.4

>  <SCORE.INTER.CONST>
1

>  <SCORE.INTER.POLAR>
0

>  <SCORE.INTER.ROT>
3

>  <SCORE.INTER.SOLV>
0

>  <SCORE.INTER.VDW>
0

>  <SCORE.INTER.norm>
0.6

>  <SCORE.INTRA>
-0.908038

>  <SCORE.INTRA.DIHEDRAL>
-1.61423

>  <SCORE.INTRA.DIHEDRAL.0>
1.6411

>  <SCORE.INTRA.POLAR>
0

>  <SCORE.INTRA.POLAR.0>
0

>  <SCORE.INTRA.REPUL>
0

>  <SCORE.INTRA.REPUL.0>
0

>  <SCORE.INTRA.SOLV>
-0.294124

>  <SCORE.INTRA.SOLV.lig_0>
-16.0602

>  <SCORE.INTRA.VDW>
0.0461381

>  <SCORE.INTRA.VDW.0>
-0.639572

>  <SCORE.INTRA.norm>
-0.0648599

>  <SCORE.RESTR>
0

>  <SCORE.RESTR.CAVITY>
0

>  <SCORE.RESTR.norm>
0

>  <SCORE.SYSTEM>
0

>  <SCORE.SYSTEM.CONST>
0

>  <SCORE.SYSTEM.DIHEDRAL>
0

>  <SCORE.SYSTEM.SOLV>
0

>  <SCORE.SYSTEM.norm>
0

>  <SCORE.heavy>
14

>  <SCORE.norm>
0.53514

$$$$
ligand.pdb
  rDOCK(R)          3D
libRbt.so/2013.1/901 2013/11/27
 14 14  0  0  0  0  0  0  0  0999 V2000
   17.7560   -8.7831  -14.9780 C   0  0  0  0  0  0
   12.1081   -8.5961   -9.3690 C   0  0  0  0  0  0
   17.2638   -8.0435  -13.7446 C   0  0  0  0  0  0
   15.9483   -8.5985  -13.1996 C   0  0  0  0  0  0
   14.3248   -8.1787  -11.4025 C   0  0  0  0  0  0
   13.0334   -7.5593   -9.3387 C   0  0  0  0  0  0
   12.9524   -6.6101   -8.3298 C   0  0  0  0  0  0
   11.9677   -6.7079   -7.3579 C   0  0  0  0  0  0
   11.0455   -7.7290   -7.4011 C   0  0  0  0  0  0
   11.1187   -8.6720   -8.3986 C   0  0  0  0  0  0
   15.4744   -7.8625  -12.0400 N   0  0  0  0  0  0
   14.0620   -7.4047  -10.2995 N   0  0  0  0  0  0
   13.5740   -9.0828  -11.7918 O   0  0  0  0  0  0
   18.2471   -8.1000  -12.7193 O   0  0  0  0  0  0
  2 10  2  0  0  0
  2  6  1  0  0  0
  3  4  1  0  0  0
  3  1  1  0  0  0
  4 11  1  0  0  0
  5 11  1  0  0  0
  5 12  1  0  0  0
  6  7  2  0  0  0
  7  8  1  0  0  0
  9  8  2  0  0  0
 10  9  1  0  0  0
 12  6  1  0  0  0
 13  5  2  0  0  0
 14  3  1  0  0  0
M  END
>  <CHROM.1>
-178.65884653,179.62780206,1.40391072,14.31659860,-8.02256103,-10.85394658
0.68391471,-0.44829013,-2.19653582

>  <Name>
ligand.pdb

>  <RI>
3.29373e+07

>  <Rbt.Current_Directory>
/home/v/Downloads/rDock_2013.1_src/bin

>  <Rbt.Executable>
rbdock ($Id: //depot/dev/client3/rdock/2013.1/src/exe/rbdock.cxx#4 $)

>  <Rbt.Library>
libRbt.so (2013.1, Build901 2013/11/27)

>  <Rbt.Parameter_File>
/home/v/Downloads/rDock_2013.1_src/data/scripts/dock_solv.prm

>  <Rbt.Receptor>
/home/v/Desktop/r.prm

>  <SCORE>
7.49228

>  <SCORE.INTER>
8.4

>  <SCORE.INTER.CONST>
1

>  <SCORE.INTER.POLAR>
0

>  <SCORE.INTER.ROT>
3

>  <SCORE.INTER.SOLV>
0

>  <SCORE.INTER.VDW>
0

>  <SCORE.INTER.norm>
0.6

>  <SCORE.INTRA>
-0.907725

>  <SCORE.INTRA.DIHEDRAL>
-1.61121

>  <SCORE.INTRA.DIHEDRAL.0>
1.6411

>  <SCORE.INTRA.POLAR>
0

>  <SCORE.INTRA.POLAR.0>
0

>  <SCORE.INTRA.REPUL>
0

>  <SCORE.INTRA.REPUL.0>
0

>  <SCORE.INTRA.SOLV>
-0.294075

>  <SCORE.INTRA.SOLV.lig_0>
-16.0602

>  <SCORE.INTRA.VDW>
0.0449151

>  <SCORE.INTRA.VDW.0>
-0.639572

>  <SCORE.INTRA.norm>
-0.0648375

>  <SCORE.RESTR>
0

>  <SCORE.RESTR.CAVITY>
0

>  <SCORE.RESTR.norm>
0

>  <SCORE.SYSTEM>
0

>  <SCORE.SYSTEM.CONST>
0

>  <SCORE.SYSTEM.DIHEDRAL>
0

>  <SCORE.SYSTEM.SOLV>
0

>  <SCORE.SYSTEM.norm>
0

>  <SCORE.heavy>
14

>  <SCORE.norm>
0.535163

$$$$
ligand.pdb
  rDOCK(R)          3D
libRbt.so/2013.1/901 2013/11/27
 14 14  0  0  0  0  0  0  0  0999 V2000
    9.7830   -4.7845   -7.1325 C   0  0  0  0  0  0
   16.9269   -8.0906   -5.9353 C   0  0  0  0  0  0
   11.1856   -4.9349   -7.6989 C   0  0  0  0  0  0
   12.1164   -5.7336   -6.7871 C   0  0  0  0  0  0
   14.4499   -6.4984   -6.6781 C   0  0  0  0  0  0
   16.8194   -7.2510   -7.0379 C   0  0  0  0  0  0
   17.9161   -7.0861   -7.8718 C   0  0  0  0  0  0
   19.0976   -7.7646   -7.6121 C   0  0  0  0  0  0
   19.2027   -8.5839   -6.5108 C   0  0  0  0  0  0
   18.1207   -8.7506   -5.6795 C   0  0  0  0  0  0
   13.4628   -5.8370   -7.3233 N   0  0  0  0  0  0
   15.6421   -6.5322   -7.3579 N   0  0  0  0  0  0
   14.2876   -7.0172   -5.5658 O   0  0  0  0  0  0
   11.1310   -5.5690   -8.9701 O   0  0  0  0  0  0
  2 10  2  0  0  0
  2  6  1  0  0  0
  3  4  1  0  0  0
  3  1  1  0  0  0
  4 11  1  0  0  0
  5 11  1  0  0  0
  5 12  1  0  0  0
  6  7  2  0  0  0
  7  8  1  0  0  0
  9  8  2  0  0  0
 10  9  1  0  0  0
 12  6  1  0  0  0
 13  5  2  0  0  0
 14  3  1  0  0  0
M  END
>  <CHROM.1>
-178.37737737,179.86535863,1.22085152,14.85671284,-6.69799537,-7.02460775
2.90740944,0.30705586,-1.20654069

>  <Name>
ligand.pdb

>  <RI>
3.29373e+07

>  <Rbt.Current_Directory>
/home/v/Downloads/rDock_2013.1_src/bin

>  <Rbt.Executable>
rbdock ($Id: //depot/dev/client3/rdock/2013.1/src/exe/rbdock.cxx#4 $)

>  <Rbt.Library>
libRbt.so (2013.1, Build901 2013/11/27)

>  <Rbt.Parameter_File>
/home/v/Downloads/rDock_2013.1_src/data/scripts/dock_solv.prm

>  <Rbt.Receptor>
/home/v/Desktop/r.prm

>  <SCORE>
7.49237

>  <SCORE.INTER>
8.4

>  <SCORE.INTER.CONST>
1

>  <SCORE.INTER.POLAR>
0

>  <SCORE.INTER.ROT>
3

>  <SCORE.INTER.SOLV>
0

>  <SCORE.INTER.VDW>
0

>  <SCORE.INTER.norm>
0.6

>  <SCORE.INTRA>
-0.907627

>  <SCORE.INTRA.DIHEDRAL>
-1.60924

>  <SCORE.INTRA.DIHEDRAL.0>
1.6411

>  <SCORE.INTRA.POLAR>
0

>  <SCORE.INTRA.POLAR.0>
0

>  <SCORE.INTRA.REPUL>
0

>  <SCORE.INTRA.REPUL.0>
0

>  <SCORE.INTRA.SOLV>
-0.294998

>  <SCORE.INTRA.SOLV.lig_0>
-16.0602

>  <SCORE.INTRA.VDW>
0.0444921

>  <SCORE.INTRA.VDW.0>
-0.639572

>  <SCORE.INTRA.norm>
-0.0648305

>  <SCORE.RESTR>
0

>  <SCORE.RESTR.CAVITY>
0

>  <SCORE.RESTR.norm>
0

>  <SCORE.SYSTEM>
0

>  <SCORE.SYSTEM.CONST>
0

>  <SCORE.SYSTEM.DIHEDRAL>
0

>  <SCORE.SYSTEM.SOLV>
0

>  <SCORE.SYSTEM.norm>
0

>  <SCORE.heavy>
14

>  <SCORE.norm>
0.53517

$$$$
ligand.pdb
  rDOCK(R)          3D
libRbt.so/2013.1/901 2013/11/27
 14 14  0  0  0  0  0  0  0  0999 V2000
   18.6297   -9.3096   -8.7798 C   0  0  0  0  0  0
   10.8907   -7.5084   -9.2839 C   0  0  0  0  0  0
   17.2524   -9.6068   -8.2092 C   0  0  0  0  0  0
   16.1542   -8.7301   -8.8101 C   0  0  0  0  0  0
   13.7339   -8.3448   -8.6211 C   0  0  0  0  0  0
   11.2461   -8.3984   -8.2771 C   0  0  0  0  0  0
   10.2531   -8.9476   -7.4785 C   0  0  0  0  0  0
    8.9229   -8.6205   -7.6963 C   0  0  0  0  0  0
    8.5782   -7.7278   -8.6858 C   0  0  0  0  0  0
    9.5569   -7.1786   -9.4797 C   0  0  0  0  0  0
   14.8483   -9.0069   -8.2366 N   0  0  0  0  0  0
   12.5843   -8.7734   -8.0053 N   0  0  0  0  0  0
   13.7579   -7.4256   -9.4500 O   0  0  0  0  0  0
   16.9211  -10.9723   -8.4252 O   0  0  0  0  0  0
  2 10  2  0  0  0
  2  6  1  0  0  0
  3  4  1  0  0  0
  3  1  1  0  0  0
  4 11  1  0  0  0
  5 11  1  0  0  0
  5 12  1  0  0  0
  6  7  2  0  0  0
  7  8  1  0  0  0
  9  8  2  0  0  0
 10  9  1  0  0  0
 12  6  1  0  0  0
 13  5  2  0  0  0
 14  3  1  0  0  0
M  END
>  <CHROM.1>
-178.86001484,179.88954820,1.32226701,13.25224902,-8.64252910,-8.54471406
-0.16394721,0.13062377,-0.62408057

>  <Name>
ligand.pdb

>  <RI>
3.29373e+07

>  <Rbt.Current_Directory>
/home/v/Downloads/rDock_2013.1_src/bin

>  <Rbt.Executable>
rbdock ($Id: //depot/dev/client3/rdock/2013.1/src/exe/rbdock.cxx#4 $)

>  <Rbt.Library>
libRbt.so (2013.1, Build901 2013/11/27)

>  <Rbt.Parameter_File>
/home/v/Downloads/rDock_2013.1_src/data/scripts/dock_solv.prm

>  <Rbt.Receptor>
/home/v/Desktop/r.prm

>  <SCORE>
7.49229

>  <SCORE.INTER>
8.4

>  <SCORE.INTER.CONST>
1

>  <SCORE.INTER.POLAR>
0

>  <SCORE.INTER.ROT>
3

>  <SCORE.INTER.SOLV>
0

>  <SCORE.INTER.VDW>
0

>  <SCORE.INTER.norm>
0.6

>  <SCORE.INTRA>
-0.907705

>  <SCORE.INTRA.DIHEDRAL>
-1.61381

>  <SCORE.INTRA.DIHEDRAL.0>
1.6411

>  <SCORE.INTRA.POLAR>
0

>  <SCORE.INTRA.POLAR.0>
0

>  <SCORE.INTRA.REPUL>
0

>  <SCORE.INTRA.REPUL.0>
0

>  <SCORE.INTRA.SOLV>
-0.292824

>  <SCORE.INTRA.SOLV.lig_0>
-16.0602

>  <SCORE.INTRA.VDW>
0.0456112

>  <SCORE.INTRA.VDW.0>
-0.639572

>  <SCORE.INTRA.norm>
-0.0648361

>  <SCORE.RESTR>
0

>  <SCORE.RESTR.CAVITY>
0

>  <SCORE.RESTR.norm>
0

>  <SCORE.SYSTEM>
0

>  <SCORE.SYSTEM.CONST>
0

>  <SCORE.SYSTEM.DIHEDRAL>
0

>  <SCORE.SYSTEM.SOLV>
0

>  <SCORE.SYSTEM.norm>
0

>  <SCORE.heavy>
14

>  <SCORE.norm>
0.535164

$$$$
ligand.pdb
  rDOCK(R)          3D
libRbt.so/2013.1/901 2013/11/27
 14 14  0  0  0  0  0  0  0  0999 V2000
    8.2055   -2.7229  -11.2391 C   0  0  0  0  0  0
   14.6284   -7.4188  -11.5170 C   0  0  0  0  0  0
    8.8420   -3.9809  -10.6708 C   0  0  0  0  0  0
   10.1761   -4.3270  -11.3311 C   0  0  0  0  0  0
   11.9364   -6.0402  -11.2415 C   0  0  0  0  0  0
   13.5876   -7.8560  -10.7060 C   0  0  0  0  0  0
   13.7457   -9.0241   -9.9740 C   0  0  0  0  0  0
   14.9349   -9.7346  -10.0429 C   0  0  0  0  0  0
   15.9570   -9.3043  -10.8586 C   0  0  0  0  0  0
   15.8067   -8.1488  -11.5879 C   0  0  0  0  0  0
   10.7567   -5.5485  -10.8003 N   0  0  0  0  0  0
   12.3510   -7.1759  -10.5912 N   0  0  0  0  0  0
   12.5765   -5.5120  -12.1601 O   0  0  0  0  0  0
    9.0456   -3.8330   -9.2716 O   0  0  0  0  0  0
  2 10  2  0  0  0
  2  6  1  0  0  0
  3  4  1  0  0  0
  3  1  1  0  0  0
  4 11  1  0  0  0
  5 11  1  0  0  0
  5 12  1  0  0  0
  6  7  2  0  0  0
  7  8  1  0  0  0
  9  8  2  0  0  0
 10  9  1  0  0  0
 12  6  1  0  0  0
 13  5  2  0  0  0
 14  3  1  0  0  0
M  END
>  <CHROM.1>
-178.62139613,-179.97264243,1.88320867,12.21045646,-6.36020990,-10.85582316
-2.69012384,-0.56167008,2.33363006

>  <Name>
ligand.pdb

>  <RI>
3.29373e+07

>  <Rbt.Current_Directory>
/home/v/Downloads/rDock_2013.1_src/bin

>  <Rbt.Executable>
rbdock ($Id: //depot/dev/client3/rdock/2013.1/src/exe/rbdock.cxx#4 $)

>  <Rbt.Library>
libRbt.so (2013.1, Build901 2013/11/27)

>  <Rbt.Parameter_File>
/home/v/Downloads/rDock_2013.1_src/data/scripts/dock_solv.prm

>  <Rbt.Receptor>
/home/v/Desktop/r.prm

>  <SCORE>
7.49299

>  <SCORE.INTER>
8.4

>  <SCORE.INTER.CONST>
1

>  <SCORE.INTER.POLAR>
0

>  <SCORE.INTER.ROT>
3

>  <SCORE.INTER.SOLV>
0

>  <SCORE.INTER.VDW>
0

>  <SCORE.INTER.norm>
0.6

>  <SCORE.INTRA>
-0.907007

>  <SCORE.INTRA.DIHEDRAL>
-1.60725

>  <SCORE.INTRA.DIHEDRAL.0>
1.6411

>  <SCORE.INTRA.POLAR>
0

>  <SCORE.INTRA.POLAR.0>
0

>  <SCORE.INTRA.REPUL>
0

>  <SCORE.INTRA.REPUL.0>
0

>  <SCORE.INTRA.SOLV>
-0.293726

>  <SCORE.INTRA.SOLV.lig_0>
-16.0602

>  <SCORE.INTRA.VDW>
0.0434785

>  <SCORE.INTRA.VDW.0>
-0.639572

>  <SCORE.INTRA.norm>
-0.0647862

>  <SCORE.RESTR>
0

>  <SCORE.RESTR.CAVITY>
0

>  <SCORE.RESTR.norm>
0

>  <SCORE.SYSTEM>
0

>  <SCORE.SYSTEM.CONST>
0

>  <SCORE.SYSTEM.DIHEDRAL>
0

>  <SCORE.SYSTEM.SOLV>
0

>  <SCORE.SYSTEM.norm>
0

>  <SCORE.heavy>
14

>  <SCORE.norm>
0.535214

$$$$
ligand.pdb
  rDOCK(R)          3D
libRbt.so/2013.1/901 2013/11/27
 14 14  0  0  0  0  0  0  0  0999 V2000
   11.2177   -6.3461  -14.2416 C   0  0  0  0  0  0
   17.3249  -10.6346  -11.4643 C   0  0  0  0  0  0
   11.6240   -7.4061  -13.2307 C   0  0  0  0  0  0
   13.0921   -7.8141  -13.3492 C   0  0  0  0  0  0
   14.7075   -9.3615  -12.3305 C   0  0  0  0  0  0
   16.0813  -10.9108  -10.9083 C   0  0  0  0  0  0
   15.9891  -11.8492   -9.8903 C   0  0  0  0  0  0
   17.1288  -12.4897   -9.4271 C   0  0  0  0  0  0
   18.3558  -12.2223   -9.9911 C   0  0  0  0  0  0
   18.4543  -11.2950  -11.0010 C   0  0  0  0  0  0
   13.4594   -8.8455  -12.3942 N   0  0  0  0  0  0
   14.8820  -10.2908  -11.3353 N   0  0  0  0  0  0
   15.6072   -9.0271  -13.1124 O   0  0  0  0  0  0
   11.3819   -6.9370  -11.9107 O   0  0  0  0  0  0
  2 10  2  0  0  0
  2  6  1  0  0  0
  3  4  1  0  0  0
  3  1  1  0  0  0
  4 11  1  0  0  0
  5 11  1  0  0  0
  5 12  1  0  0  0
  6  7  2  0  0  0
  7  8  1  0  0  0
  9  8  2  0  0  0
 10  9  1  0  0  0
 12  6  1  0  0  0
 13  5  2  0  0  0
 14  3  1  0  0  0
M  END
>  <CHROM.1>
-178.90556394,179.51162597,0.75539117,14.84315169,-9.56996018,-11.81690374
-2.44132214,-0.35110506,2.19541723

>  <Name>
ligand.pdb

>  <RI>
3.29373e+07

>  <Rbt.Current_Directory>
/home/v/Downloads/rDock_2013.1_src/bin

>  <Rbt.Executable>
rbdock ($Id: //depot/dev/client3/rdock/2013.1/src/exe/rbdock.cxx#4 $)

>  <Rbt.Library>
libRbt.so (2013.1, Build901 2013/11/27)

>  <Rbt.Parameter_File>
/home/v/Downloads/rDock_2013.1_src/data/scripts/dock_solv.prm

>  <Rbt.Receptor>
/home/v/Desktop/r.prm

>  <SCORE>
7.49201

>  <SCORE.INTER>
8.4

>  <SCORE.INTER.CONST>
1

>  <SCORE.INTER.POLAR>
0

>  <SCORE.INTER.ROT>
3

>  <SCORE.INTER.SOLV>
0

>  <SCORE.INTER.VDW>
0

>  <SCORE.INTER.norm>
0.6

>  <SCORE.INTRA>
-0.907986

>  <SCORE.INTRA.DIHEDRAL>
-1.61704

>  <SCORE.INTRA.DIHEDRAL.0>
1.6411

>  <SCORE.INTRA.POLAR>
0

>  <SCORE.INTRA.POLAR.0>
0

>  <SCORE.INTRA.REPUL>
0

>  <SCORE.INTRA.REPUL.0>
0

>  <SCORE.INTRA.SOLV>
-0.293116

>  <SCORE.INTRA.SOLV.lig_0>
-16.0602

>  <SCORE.INTRA.VDW>
0.0470922

>  <SCORE.INTRA.VDW.0>
-0.639572

>  <SCORE.INTRA.norm>
-0.0648561

>  <SCORE.RESTR>
0

>  <SCORE.RESTR.CAVITY>
0

>  <SCORE.RESTR.norm>
0

>  <SCORE.SYSTEM>
0

>  <SCORE.SYSTEM.CONST>
0

>  <SCORE.SYSTEM.DIHEDRAL>
0

>  <SCORE.SYSTEM.SOLV>
0

>  <SCORE.SYSTEM.norm>
0

>  <SCORE.heavy>
14

>  <SCORE.norm>
0.535144

$$$$
ligand.pdb
  rDOCK(R)          3D
libRbt.so/2013.1/901 2013/11/27
 14 14  0  0  0  0  0  0  0  0999 V2000
   13.0181   -6.8035  -16.0956 C   0  0  0  0  0  0
   19.1213   -6.8313  -10.9838 C   0  0  0  0  0  0
   13.4593   -7.2137  -14.6999 C   0  0  0  0  0  0
   14.9402   -6.9429  -14.4370 C   0  0  0  0  0  0
   16.6220   -7.2170  -12.6655 C   0  0  0  0  0  0
   17.9698   -7.4863  -10.5628 C   0  0  0  0  0  0
   17.9347   -8.0427   -9.2921 C   0  0  0  0  0  0
   19.0321   -7.9307   -8.4514 C   0  0  0  0  0  0
   20.1748   -7.2931   -8.8789 C   0  0  0  0  0  0
   20.2172   -6.7410  -10.1371 C   0  0  0  0  0  0
   15.3546   -7.3688  -13.1111 N   0  0  0  0  0  0
   16.8170   -7.6331  -11.3719 N   0  0  0  0  0  0
   17.5255   -6.7516  -13.3724 O   0  0  0  0  0  0
   12.6856   -6.5276  -13.7243 O   0  0  0  0  0  0
  2 10  2  0  0  0
  2  6  1  0  0  0
  3  4  1  0  0  0
  3  1  1  0  0  0
  4 11  1  0  0  0
  5 11  1  0  0  0
  5 12  1  0  0  0
  6  7  2  0  0  0
  7  8  1  0  0  0
  9  8  2  0  0  0
 10  9  1  0  0  0
 12  6  1  0  0  0
 13  5  2  0  0  0
 14  3  1  0  0  0
M  END
>  <CHROM.1>
-178.63461023,-179.62082574,1.71770582,16.66256589,-7.17735654,-12.09614302
-2.41159633,0.14795851,1.83251345

>  <Name>
ligand.pdb

>  <RI>
3.29373e+07

>  <Rbt.Current_Directory>
/home/v/Downloads/rDock_2013.1_src/bin

>  <Rbt.Executable>
rbdock ($Id: //depot/dev/client3/rdock/2013.1/src/exe/rbdock.cxx#4 $)

>  <Rbt.Library>
libRbt.so (2013.1, Build901 2013/11/27)

>  <Rbt.Parameter_File>
/home/v/Downloads/rDock_2013.1_src/data/scripts/dock_solv.prm

>  <Rbt.Receptor>
/home/v/Desktop/r.prm

>  <SCORE>
7.49294

>  <SCORE.INTER>
8.4

>  <SCORE.INTER.CONST>
1

>  <SCORE.INTER.POLAR>
0

>  <SCORE.INTER.ROT>
3

>  <SCORE.INTER.SOLV>
0

>  <SCORE.INTER.VDW>
0

>  <SCORE.INTER.norm>
0.6

>  <SCORE.INTRA>
-0.907055

>  <SCORE.INTRA.DIHEDRAL>
-1.60864

>  <SCORE.INTRA.DIHEDRAL.0>
1.6411

>  <SCORE.INTRA.POLAR>
0

>  <SCORE.INTRA.POLAR.0>
0

>  <SCORE.INTRA.REPUL>
0

>  <SCORE.INTRA.REPUL.0>
0

>  <SCORE.INTRA.SOLV>
-0.293166

>  <SCORE.INTRA.SOLV.lig_0>
-16.0602

>  <SCORE.INTRA.VDW>
0.0438472

>  <SCORE.INTRA.VDW.0>
-0.639572

>  <SCORE.INTRA.norm>
-0.0647897

>  <SCORE.RESTR>
0

>  <SCORE.RESTR.CAVITY>
0

>  <SCORE.RESTR.norm>
0

>  <SCORE.SYSTEM>
0

>  <SCORE.SYSTEM.CONST>
0

>  <SCORE.SYSTEM.DIHEDRAL>
0

>  <SCORE.SYSTEM.SOLV>
0

>  <SCORE.SYSTEM.norm>
0

>  <SCORE.heavy>
14

>  <SCORE.norm>
0.53521

$$$$
ligand.pdb
  rDOCK(R)          3D
libRbt.so/2013.1/901 2013/11/27
 14 14  0  0  0  0  0  0  0  0999 V2000
    8.9206   -2.7324  -14.1906 C   0  0  0  0  0  0
   12.2243   -7.3734   -8.6279 C   0  0  0  0  0  0
    8.6710   -3.4528  -12.8756 C   0  0  0  0  0  0
    9.8675   -4.2830  -12.4119 C   0  0  0  0  0  0
   10.5257   -5.7822  -10.5787 C   0  0  0  0  0  0
   10.8779   -7.0751   -8.4539 C   0  0  0  0  0  0
   10.2225   -7.5423   -7.3236 C   0  0  0  0  0  0
   10.9108   -8.2845   -6.3753 C   0  0  0  0  0  0
   12.2406   -8.5885   -6.5599 C   0  0  0  0  0  0
   12.8958   -8.1304   -7.6781 C   0  0  0  0  0  0
    9.6066   -4.9833  -11.1660 N   0  0  0  0  0  0
   10.1203   -6.3219   -9.3833 N   0  0  0  0  0  0
   11.6315   -6.0105  -11.0864 O   0  0  0  0  0  0
    8.3423   -2.5126  -11.8611 O   0  0  0  0  0  0
  2 10  2  0  0  0
  2  6  1  0  0  0
  3  4  1  0  0  0
  3  1  1  0  0  0
  4 11  1  0  0  0
  5 11  1  0  0  0
  5 12  1  0  0  0
  6  7  2  0  0  0
  7  8  1  0  0  0
  9  8  2  0  0  0
 10  9  1  0  0  0
 12  6  1  0  0  0
 13  5  2  0  0  0
 14  3  1  0  0  0
M  END
>  <CHROM.1>
-179.03262517,179.61150433,0.97423264,10.45921090,-5.83107304,-10.01358287
-1.97607694,-0.49450132,2.07554905

>  <Name>
ligand.pdb

>  <RI>
3.29373e+07

>  <Rbt.Current_Directory>
/home/v/Downloads/rDock_2013.1_src/bin

>  <Rbt.Executable>
rbdock ($Id: //depot/dev/client3/rdock/2013.1/src/exe/rbdock.cxx#4 $)

>  <Rbt.Library>
libRbt.so (2013.1, Build901 2013/11/27)

>  <Rbt.Parameter_File>
/home/v/Downloads/rDock_2013.1_src/data/scripts/dock_solv.prm

>  <Rbt.Receptor>
/home/v/Desktop/r.prm

>  <SCORE>
7.49219

>  <SCORE.INTER>
8.4

>  <SCORE.INTER.CONST>
1

>  <SCORE.INTER.POLAR>
0

>  <SCORE.INTER.ROT>
3

>  <SCORE.INTER.SOLV>
0

>  <SCORE.INTER.VDW>
0

>  <SCORE.INTER.norm>
0.6

>  <SCORE.INTRA>
-0.907809

>  <SCORE.INTRA.DIHEDRAL>
-1.61715

>  <SCORE.INTRA.DIHEDRAL.0>
1.6411

>  <SCORE.INTRA.POLAR>
0

>  <SCORE.INTRA.POLAR.0>
0

>  <SCORE.INTRA.REPUL>
0

>  <SCORE.INTRA.REPUL.0>
0

>  <SCORE.INTRA.SOLV>
-0.292422

>  <SCORE.INTRA.SOLV.lig_0>
-16.0602

>  <SCORE.INTRA.VDW>
0.0469751

>  <SCORE.INTRA.VDW.0>
-0.639572

>  <SCORE.INTRA.norm>
-0.0648435

>  <SCORE.RESTR>
0

>  <SCORE.RESTR.CAVITY>
0

>  <SCORE.RESTR.norm>
0

>  <SCORE.SYSTEM>
0

>  <SCORE.SYSTEM.CONST>
0

>  <SCORE.SYSTEM.DIHEDRAL>
0

>  <SCORE.SYSTEM.SOLV>
0

>  <SCORE.SYSTEM.norm>
0

>  <SCORE.heavy>
14

>  <SCORE.norm>
0.535157

$$$$
ligand.pdb
  rDOCK(R)          3D
libRbt.so/2013.1/901 2013/11/27
 14 14  0  0  0  0  0  0  0  0999 V2000
   14.5450   -9.5645  -14.3453 C   0  0  0  0  0  0
   15.3034   -8.4498   -6.4978 C   0  0  0  0  0  0
   13.7927   -9.5206  -13.0251 C   0  0  0  0  0  0
   14.7089   -9.3034  -11.8214 C   0  0  0  0  0  0
   14.5953   -9.1265   -9.3724 C   0  0  0  0  0  0
   14.0355   -8.8023   -6.9451 C   0  0  0  0  0  0
   12.9944   -8.8831   -6.0313 C   0  0  0  0  0  0
   13.2186   -8.6000   -4.6921 C   0  0  0  0  0  0
   14.4795   -8.2650   -4.2527 C   0  0  0  0  0  0
   15.5158   -8.1847   -5.1522 C   0  0  0  0  0  0
   13.9805   -9.2977  -10.5643 N   0  0  0  0  0  0
   13.7417   -9.1016   -8.2976 N   0  0  0  0  0  0
   15.8235   -9.0128   -9.2667 O   0  0  0  0  0  0
   12.8187   -8.4855  -13.0550 O   0  0  0  0  0  0
  2 10  2  0  0  0
  2  6  1  0  0  0
  3  4  1  0  0  0
  3  1  1  0  0  0
  4 11  1  0  0  0
  5 11  1  0  0  0
  5 12  1  0  0  0
  6  7  2  0  0  0
  7  8  1  0  0  0
  9  8  2  0  0  0
 10  9  1  0  0  0
 12  6  1  0  0  0
 13  5  2  0  0  0
 14  3  1  0  0  0
M  END
>  <CHROM.1>
-178.53087241,179.72837620,1.15012024,14.25666637,-8.90668931,-8.96938996
-1.60650390,-0.02450325,1.47459478

>  <Name>
ligand.pdb

>  <RI>
3.29373e+07

>  <Rbt.Current_Directory>
/home/v/Downloads/rDock_2013.1_src/bin

>  <Rbt.Executable>
rbdock ($Id: //depot/dev/client3/rdock/2013.1/src/exe/rbdock.cxx#4 $)

>  <Rbt.Library>
libRbt.so (2013.1, Build901 2013/11/27)

>  <Rbt.Parameter_File>
/home/v/Downloads/rDock_2013.1_src/data/scripts/dock_solv.prm

>  <Rbt.Receptor>
/home/v/Desktop/r.prm

>  <SCORE>
7.49215

>  <SCORE.INTER>
8.4

>  <SCORE.INTER.CONST>
1

>  <SCORE.INTER.POLAR>
0

>  <SCORE.INTER.ROT>
3

>  <SCORE.INTER.SOLV>
0

>  <SCORE.INTER.VDW>
0

>  <SCORE.INTER.norm>
0.6

>  <SCORE.INTRA>
-0.907852

>  <SCORE.INTRA.DIHEDRAL>
-1.61144

>  <SCORE.INTRA.DIHEDRAL.0>
1.6411

>  <SCORE.INTRA.POLAR>
0

>  <SCORE.INTRA.POLAR.0>
0

>  <SCORE.INTRA.REPUL>
0

>  <SCORE.INTRA.REPUL.0>
0

>  <SCORE.INTRA.SOLV>
-0.294499

>  <SCORE.INTRA.SOLV.lig_0>
-16.0602

>  <SCORE.INTRA.VDW>
0.0451192

>  <SCORE.INTRA.VDW.0>
-0.639572

>  <SCORE.INTRA.norm>
-0.0648466

>  <SCORE.RESTR>
0

>  <SCORE.RESTR.CAVITY>
0

>  <SCORE.RESTR.norm>
0

>  <SCORE.SYSTEM>
0

>  <SCORE.SYSTEM.CONST>
0

>  <SCORE.SYSTEM.DIHEDRAL>
0

>  <SCORE.SYSTEM.SOLV>
0

>  <SCORE.SYSTEM.norm>
0

>  <SCORE.heavy>
14

>  <SCORE.norm>
0.535153

$$$$
ligand.pdb
  rDOCK(R)          3D
libRbt.so/2013.1/901 2013/11/27
 14 14  0  0  0  0  0  0  0  0999 V2000
   15.2060   -5.3235   -6.5335 C   0  0  0  0  0  0
   15.8979  -13.2512   -6.2615 C   0  0  0  0  0  0
   15.6314   -6.5537   -7.3185 C   0  0  0  0  0  0
   15.5401   -7.8438   -6.5043 C   0  0  0  0  0  0
   15.9769  -10.2520   -6.7314 C   0  0  0  0  0  0
   16.3501  -12.6378   -7.4239 C   0  0  0  0  0  0
   16.8259  -13.4249   -8.4628 C   0  0  0  0  0  0
   16.8339  -14.8068   -8.3433 C   0  0  0  0  0  0
   16.3979  -15.4081   -7.1843 C   0  0  0  0  0  0
   15.9268  -14.6344   -6.1504 C   0  0  0  0  0  0
   15.9686   -9.0080   -7.2608 N   0  0  0  0  0  0
   16.3666  -11.2339   -7.6082 N   0  0  0  0  0  0
   15.6684  -10.4770   -5.5537 O   0  0  0  0  0  0
   14.8293   -6.6876   -8.4846 O   0  0  0  0  0  0
  2 10  2  0  0  0
  2  6  1  0  0  0
  3  4  1  0  0  0
  3  1  1  0  0  0
  4 11  1  0  0  0
  5 11  1  0  0  0
  5 12  1  0  0  0
  6  7  2  0  0  0
  7  8  1  0  0  0
  9  8  2  0  0  0
 10  9  1  0  0  0
 12  6  1  0  0  0
 13  5  2  0  0  0
 14  3  1  0  0  0
M  END
>  <CHROM.1>
-179.14173147,179.58484866,0.61995384,15.92628929,-10.66704162,-7.12073583
2.28182688,1.35474300,-0.68291045

>  <Name>
ligand.pdb

>  <RI>
3.29373e+07

>  <Rbt.Current_Directory>
/home/v/Downloads/rDock_2013.1_src/bin

>  <Rbt.Executable>
rbdock ($Id: //depot/dev/client3/rdock/2013.1/src/exe/rbdock.cxx#4 $)

>  <Rbt.Library>
libRbt.so (2013.1, Build901 2013/11/27)

>  <Rbt.Parameter_File>
/home/v/Downloads/rDock_2013.1_src/data/scripts/dock_solv.prm

>  <Rbt.Receptor>
/home/v/Desktop/r.prm

>  <SCORE>
7.4923

>  <SCORE.INTER>
8.4

>  <SCORE.INTER.CONST>
1

>  <SCORE.INTER.POLAR>
0

>  <SCORE.INTER.ROT>
3

>  <SCORE.INTER.SOLV>
0

>  <SCORE.INTER.VDW>
0

>  <SCORE.INTER.norm>
0.6

>  <SCORE.INTRA>
-0.907697

>  <SCORE.INTRA.DIHEDRAL>
-1.61949

>  <SCORE.INTRA.DIHEDRAL.0>
1.6411

>  <SCORE.INTRA.POLAR>
0

>  <SCORE.INTRA.POLAR.0>
0

>  <SCORE.INTRA.REPUL>
0

>  <SCORE.INTRA.REPUL.0>
0

>  <SCORE.INTRA.SOLV>
-0.291969

>  <SCORE.INTRA.SOLV.lig_0>
-16.0602

>  <SCORE.INTRA.VDW>
0.0480309

>  <SCORE.INTRA.VDW.0>
-0.639572

>  <SCORE.INTRA.norm>
-0.0648355

>  <SCORE.RESTR>
0

>  <SCORE.RESTR.CAVITY>
0

>  <SCORE.RESTR.norm>
0

>  <SCORE.SYSTEM>
0

>  <SCORE.SYSTEM.CONST>
0

>  <SCORE.SYSTEM.DIHEDRAL>
0

>  <SCORE.SYSTEM.SOLV>
0

>  <SCORE.SYSTEM.norm>
0

>  <SCORE.heavy>
14

>  <SCORE.norm>
0.535165

$$$$
ligand.pdb
  rDOCK(R)          3D
libRbt.so/2013.1/901 2013/11/27
 14 14  0  0  0  0  0  0  0  0999 V2000
   15.4215   -2.5500   -7.3405 C   0  0  0  0  0  0
   16.2719  -10.4314   -8.0937 C   0  0  0  0  0  0
   15.8155   -3.6639   -8.2969 C   0  0  0  0  0  0
   15.8048   -5.0452   -7.6432 C   0  0  0  0  0  0
   16.2634   -7.3963   -8.1946 C   0  0  0  0  0  0
   16.6278   -9.6692   -9.2003 C   0  0  0  0  0  0
   17.0364  -10.3114  -10.3604 C   0  0  0  0  0  0
   17.0732  -11.6969  -10.4145 C   0  0  0  0  0  0
   16.7329  -12.4461   -9.3109 C   0  0  0  0  0  0
   16.3287  -11.8166   -8.1577 C   0  0  0  0  0  0
   16.2013   -6.0971   -8.5637 N   0  0  0  0  0  0
   16.6104   -8.2533   -9.2093 N   0  0  0  0  0  0
   16.0355   -7.7716   -7.0371 O   0  0  0  0  0  0
   14.9381   -3.6772   -9.4154 O   0  0  0  0  0  0
  2 10  2  0  0  0
  2  6  1  0  0  0
  3  4  1  0  0  0
  3  1  1  0  0  0
  4 11  1  0  0  0
  5 11  1  0  0  0
  5 12  1  0  0  0
  6  7  2  0  0  0
  7  8  1  0  0  0
  9  8  2  0  0  0
 10  9  1  0  0  0
 12  6  1  0  0  0
 13  5  2  0  0  0
 14  3  1  0  0  0
M  END
>  <CHROM.1>
-179.19614760,179.90283253,0.08539401,16.19162796,-7.76193747,-8.62902469
2.60598085,1.38995024,-0.87762279

>  <Name>
ligand.pdb

>  <RI>
3.29373e+07

>  <Rbt.Current_Directory>
/home/v/Downloads/rDock_2013.1_src/bin

>  <Rbt.Executable>
rbdock ($Id: //depot/dev/client3/rdock/2013.1/src/exe/rbdock.cxx#4 $)

>  <Rbt.Library>
libRbt.so (2013.1, Build901 2013/11/27)

>  <Rbt.Parameter_File>
/home/v/Downloads/rDock_2013.1_src/data/scripts/dock_solv.prm

>  <Rbt.Receptor>
/home/v/Desktop/r.prm

>  <SCORE>
7.49271

>  <SCORE.INTER>
8.4

>  <SCORE.INTER.CONST>
1

>  <SCORE.INTER.POLAR>
0

>  <SCORE.INTER.ROT>
3

>  <SCORE.INTER.SOLV>
0

>  <SCORE.INTER.VDW>
0

>  <SCORE.INTER.norm>
0.6

>  <SCORE.INTRA>
-0.907292

>  <SCORE.INTRA.DIHEDRAL>
-1.6214

>  <SCORE.INTRA.DIHEDRAL.0>
1.6411

>  <SCORE.INTRA.POLAR>
0

>  <SCORE.INTRA.POLAR.0>
0

>  <SCORE.INTRA.REPUL>
0

>  <SCORE.INTRA.REPUL.0>
0

>  <SCORE.INTRA.SOLV>
-0.291308

>  <SCORE.INTRA.SOLV.lig_0>
-16.0602

>  <SCORE.INTRA.VDW>
0.0490638

>  <SCORE.INTRA.VDW.0>
-0.639572

>  <SCORE.INTRA.norm>
-0.0648065

>  <SCORE.RESTR>
0

>  <SCORE.RESTR.CAVITY>
0

>  <SCORE.RESTR.norm>
0

>  <SCORE.SYSTEM>
0

>  <SCORE.SYSTEM.CONST>
0

>  <SCORE.SYSTEM.DIHEDRAL>
0

>  <SCORE.SYSTEM.SOLV>
0

>  <SCORE.SYSTEM.norm>
0

>  <SCORE.heavy>
14

>  <SCORE.norm>
0.535193

$$$$
ligand.pdb
  rDOCK(R)          3D
libRbt.so/2013.1/901 2013/11/27
 14 14  0  0  0  0  0  0  0  0999 V2000
   11.2129   -2.9583  -10.0005 C   0  0  0  0  0  0
   14.0627  -10.2944  -11.2121 C   0  0  0  0  0  0
   12.4335   -3.7535  -10.4347 C   0  0  0  0  0  0
   12.2255   -5.2649  -10.3457 C   0  0  0  0  0  0
   13.4556   -7.3623  -10.7056 C   0  0  0  0  0  0
   14.9668   -9.2521  -11.3805 C   0  0  0  0  0  0
   16.2616   -9.5394  -11.7882 C   0  0  0  0  0  0
   16.6394  -10.8505  -12.0376 C   0  0  0  0  0  0
   15.7437  -11.8799  -11.8557 C   0  0  0  0  0  0
   14.4598  -11.6028  -11.4503 C   0  0  0  0  0  0
   13.4125   -6.0111  -10.7267 N   0  0  0  0  0  0
   14.6430   -7.8941  -11.1439 N   0  0  0  0  0  0
   12.5060   -8.0531  -10.3137 O   0  0  0  0  0  0
   12.7843   -3.4150  -11.7702 O   0  0  0  0  0  0
  2 10  2  0  0  0
  2  6  1  0  0  0
  3  4  1  0  0  0
  3  1  1  0  0  0
  4 11  1  0  0  0
  5 11  1  0  0  0
  5 12  1  0  0  0
  6  7  2  0  0  0
  7  8  1  0  0  0
  9  8  2  0  0  0
 10  9  1  0  0  0
 12  6  1  0  0  0
 13  5  2  0  0  0
 14  3  1  0  0  0
M  END
>  <CHROM.1>
-178.33832960,179.18614893,1.20050168,13.83586794,-7.58431474,-11.06554865
2.06754751,0.46387550,-0.08779354

>  <Name>
ligand.pdb

>  <RI>
3.29373e+07

>  <Rbt.Current_Directory>
/home/v/Downloads/rDock_2013.1_src/bin

>  <Rbt.Executable>
rbdock ($Id: //depot/dev/client3/rdock/2013.1/src/exe/rbdock.cxx#4 $)

>  <Rbt.Library>
libRbt.so (2013.1, Build901 2013/11/27)

>  <Rbt.Parameter_File>
/home/v/Downloads/rDock_2013.1_src/data/scripts/dock_solv.prm

>  <Rbt.Receptor>
/home/v/Desktop/r.prm

>  <SCORE>
7.4924

>  <SCORE.INTER>
8.4

>  <SCORE.INTER.CONST>
1

>  <SCORE.INTER.POLAR>
0

>  <SCORE.INTER.ROT>
3

>  <SCORE.INTER.SOLV>
0

>  <SCORE.INTER.VDW>
0

>  <SCORE.INTER.norm>
0.6

>  <SCORE.INTRA>
-0.907597

>  <SCORE.INTRA.DIHEDRAL>
-1.60834

>  <SCORE.INTRA.DIHEDRAL.0>
1.6411

>  <SCORE.INTRA.POLAR>
0

>  <SCORE.INTRA.POLAR.0>
0

>  <SCORE.INTRA.REPUL>
0

>  <SCORE.INTRA.REPUL.0>
0

>  <SCORE.INTRA.SOLV>
-0.296077

>  <SCORE.INTRA.SOLV.lig_0>
-16.0602

>  <SCORE.INTRA.VDW>
0.0446103

>  <SCORE.INTRA.VDW.0>
-0.639572

>  <SCORE.INTRA.norm>
-0.0648284

>  <SCORE.RESTR>
0

>  <SCORE.RESTR.CAVITY>
0

>  <SCORE.RESTR.norm>
0

>  <SCORE.SYSTEM>
0

>  <SCORE.SYSTEM.CONST>
0

>  <SCORE.SYSTEM.DIHEDRAL>
0

>  <SCORE.SYSTEM.SOLV>
0

>  <SCORE.SYSTEM.norm>
0

>  <SCORE.heavy>
14

>  <SCORE.norm>
0.535172

$$$$
ligand.pdb
  rDOCK(R)          3D
libRbt.so/2013.1/901 2013/11/27
 14 14  0  0  0  0  0  0  0  0999 V2000
   17.0717   -5.4335  -11.0918 C   0  0  0  0  0  0
   17.3166  -12.0869   -6.7242 C   0  0  0  0  0  0
   16.3539   -6.2310  -10.0150 C   0  0  0  0  0  0
   17.0294   -7.5675   -9.7101 C   0  0  0  0  0  0
   16.7325   -9.5492   -8.2866 C   0  0  0  0  0  0
   16.2008  -11.2781   -6.5434 C   0  0  0  0  0  0
   15.2496  -11.6391   -5.5998 C   0  0  0  0  0  0
   15.4226  -12.7858   -4.8389 C   0  0  0  0  0  0
   16.5228  -13.5904   -5.0321 C   0  0  0  0  0  0
   17.4682  -13.2397   -5.9663 C   0  0  0  0  0  0
   16.3207   -8.3279   -8.6950 N   0  0  0  0  0  0
   15.9671  -10.0956   -7.2865 N   0  0  0  0  0  0
   17.7103  -10.1232   -8.7836 O   0  0  0  0  0  0
   16.2771   -5.4701   -8.8165 O   0  0  0  0  0  0
  2 10  2  0  0  0
  2  6  1  0  0  0
  3  4  1  0  0  0
  3  1  1  0  0  0
  4 11  1  0  0  0
  5 11  1  0  0  0
  5 12  1  0  0  0
  6  7  2  0  0  0
  7  8  1  0  0  0
  9  8  2  0  0  0
 10  9  1  0  0  0
 12  6  1  0  0  0
 13  5  2  0  0  0
 14  3  1  0  0  0
M  END
>  <CHROM.1>
-179.07444408,178.98611125,0.99518747,16.56468568,-9.68202210,-7.75873703
-1.51275659,-0.74299133,2.59382985

>  <Name>
ligand.pdb

>  <RI>
3.29373e+07

>  <Rbt.Current_Directory>
/home/v/Downloads/rDock_2013.1_src/bin

>  <Rbt.Executable>
rbdock ($Id: //depot/dev/client3/rdock/2013.1/src/exe/rbdock.cxx#4 $)

>  <Rbt.Library>
libRbt.so (2013.1, Build901 2013/11/27)

>  <Rbt.Parameter_File>
/home/v/Downloads/rDock_2013.1_src/data/scripts/dock_solv.prm

>  <Rbt.Receptor>
/home/v/Desktop/r.prm

>  <SCORE>
7.49237

>  <SCORE.INTER>
8.4

>  <SCORE.INTER.CONST>
1

>  <SCORE.INTER.POLAR>
0

>  <SCORE.INTER.ROT>
3

>  <SCORE.INTER.SOLV>
0

>  <SCORE.INTER.VDW>
0

>  <SCORE.INTER.norm>
0.6

>  <SCORE.INTRA>
-0.90763

>  <SCORE.INTRA.DIHEDRAL>
-1.61664

>  <SCORE.INTRA.DIHEDRAL.0>
1.6411

>  <SCORE.INTRA.POLAR>
0

>  <SCORE.INTRA.POLAR.0>
0

>  <SCORE.INTRA.REPUL>
0

>  <SCORE.INTRA.REPUL.0>
0

>  <SCORE.INTRA.SOLV>
-0.293052

>  <SCORE.INTRA.SOLV.lig_0>
-16.0602

>  <SCORE.INTRA.VDW>
0.0472144

>  <SCORE.INTRA.VDW.0>
-0.639572

>  <SCORE.INTRA.norm>
-0.0648307

>  <SCORE.RESTR>
0

>  <SCORE.RESTR.CAVITY>
0

>  <SCORE.RESTR.norm>
0

>  <SCORE.SYSTEM>
0

>  <SCORE.SYSTEM.CONST>
0

>  <SCORE.SYSTEM.DIHEDRAL>
0

>  <SCORE.SYSTEM.SOLV>
0

>  <SCORE.SYSTEM.norm>
0

>  <SCORE.heavy>
14

>  <SCORE.norm>
0.535169

$$$$
ligand.pdb
  rDOCK(R)          3D
libRbt.so/2013.1/901 2013/11/27
 14 14  0  0  0  0  0  0  0  0999 V2000
   18.1901   -7.4716  -13.0081 C   0  0  0  0  0  0
   12.8520  -12.1128   -9.3514 C   0  0  0  0  0  0
   16.9606   -7.4722  -12.1141 C   0  0  0  0  0  0
   16.4040   -8.8733  -11.8635 C   0  0  0  0  0  0
   14.5420   -9.9831  -10.7047 C   0  0  0  0  0  0
   12.6524  -10.7422   -9.2337 C   0  0  0  0  0  0
   11.5948  -10.2765   -8.4657 C   0  0  0  0  0  0
   10.7593  -11.1714   -7.8138 C   0  0  0  0  0  0
   10.9534  -12.5279   -7.9454 C   0  0  0  0  0  0
   11.9982  -12.9964   -8.7060 C   0  0  0  0  0  0
   15.2131   -8.8558  -11.0314 N   0  0  0  0  0  0
   13.4698   -9.7782   -9.8722 N   0  0  0  0  0  0
   14.8664  -11.0989  -11.1316 O   0  0  0  0  0  0
   17.2681   -6.8687  -10.8642 O   0  0  0  0  0  0
  2 10  2  0  0  0
  2  6  1  0  0  0
  3  4  1  0  0  0
  3  1  1  0  0  0
  4 11  1  0  0  0
  5 11  1  0  0  0
  5 12  1  0  0  0
  6  7  2  0  0  0
  7  8  1  0  0  0
  9  8  2  0  0  0
 10  9  1  0  0  0
 12  6  1  0  0  0
 13  5  2  0  0  0
 14  3  1  0  0  0
M  END
>  <CHROM.1>
-178.76828212,178.74544770,1.27250947,14.24647472,-9.94042033,-10.22103538
-0.39004817,-0.68051486,-2.86086787

>  <Name>
ligand.pdb

>  <RI>
3.29373e+07

>  <Rbt.Current_Directory>
/home/v/Downloads/rDock_2013.1_src/bin

>  <Rbt.Executable>
rbdock ($Id: //depot/dev/client3/rdock/2013.1/src/exe/rbdock.cxx#4 $)

>  <Rbt.Library>
libRbt.so (2013.1, Build901 2013/11/27)

>  <Rbt.Parameter_File>
/home/v/Downloads/rDock_2013.1_src/data/scripts/dock_solv.prm

>  <Rbt.Receptor>
/home/v/Desktop/r.prm

>  <SCORE>
7.49241

>  <SCORE.INTER>
8.4

>  <SCORE.INTER.CONST>
1

>  <SCORE.INTER.POLAR>
0

>  <SCORE.INTER.ROT>
3

>  <SCORE.INTER.SOLV>
0

>  <SCORE.INTER.VDW>
0

>  <SCORE.INTER.norm>
0.6

>  <SCORE.INTRA>
-0.907593

>  <SCORE.INTRA.DIHEDRAL>
-1.61198

>  <SCORE.INTRA.DIHEDRAL.0>
1.6411

>  <SCORE.INTRA.POLAR>
0

>  <SCORE.INTRA.POLAR.0>
0

>  <SCORE.INTRA.REPUL>
0

>  <SCORE.INTRA.REPUL.0>
0

>  <SCORE.INTRA.SOLV>
-0.294727

>  <SCORE.INTRA.SOLV.lig_0>
-16.0602

>  <SCORE.INTRA.VDW>
0.0457606

>  <SCORE.INTRA.VDW.0>
-0.639572

>  <SCORE.INTRA.norm>
-0.0648281

>  <SCORE.RESTR>
0

>  <SCORE.RESTR.CAVITY>
0

>  <SCORE.RESTR.norm>
0

>  <SCORE.SYSTEM>
0

>  <SCORE.SYSTEM.CONST>
0

>  <SCORE.SYSTEM.DIHEDRAL>
0

>  <SCORE.SYSTEM.SOLV>
0

>  <SCORE.SYSTEM.norm>
0

>  <SCORE.heavy>
14

>  <SCORE.norm>
0.535172

$$$$
ligand.pdb
  rDOCK(R)          3D
libRbt.so/2013.1/901 2013/11/27
 14 14  0  0  0  0  0  0  0  0999 V2000
   14.9673  -13.7235  -14.1594 C   0  0  0  0  0  0
   16.2457  -11.3818   -6.6559 C   0  0  0  0  0  0
   14.2916  -13.3566  -12.8481 C   0  0  0  0  0  0
   15.2855  -13.0285  -11.7345 C   0  0  0  0  0  0
   15.3159  -12.4264   -9.3515 C   0  0  0  0  0  0
   14.9220  -11.6243   -7.0038 C   0  0  0  0  0  0
   13.9245  -11.4011   -6.0655 C   0  0  0  0  0  0
   14.2485  -10.9279   -4.8026 C   0  0  0  0  0  0
   15.5624  -10.7029   -4.4591 C   0  0  0  0  0  0
   16.5559  -10.9234   -5.3832 C   0  0  0  0  0  0
   14.6264  -12.7128  -10.4787 N   0  0  0  0  0  0
   14.5263  -12.1059   -8.2752 N   0  0  0  0  0  0
   16.5523  -12.4622   -9.2997 O   0  0  0  0  0  0
   13.4309  -12.2415  -13.0401 O   0  0  0  0  0  0
  2 10  2  0  0  0
  2  6  1  0  0  0
  3  4  1  0  0  0
  3  1  1  0  0  0
  4 11  1  0  0  0
  5 11  1  0  0  0
  5 12  1  0  0  0
  6  7  2  0  0  0
  7  8  1  0  0  0
  9  8  2  0  0  0
 10  9  1  0  0  0
 12  6  1  0  0  0
 13  5  2  0  0  0
 14  3  1  0  0  0
M  END
>  <CHROM.1>
-178.54703746,178.25395895,0.76063877,15.02625892,-12.10788605,-8.98272205
-1.66922260,-0.14350581,1.29202556

>  <Name>
ligand.pdb

>  <RI>
3.29373e+07

>  <Rbt.Current_Directory>
/home/v/Downloads/rDock_2013.1_src/bin

>  <Rbt.Executable>
rbdock ($Id: //depot/dev/client3/rdock/2013.1/src/exe/rbdock.cxx#4 $)

>  <Rbt.Library>
libRbt.so (2013.1, Build901 2013/11/27)

>  <Rbt.Parameter_File>
/home/v/Downloads/rDock_2013.1_src/data/scripts/dock_solv.prm

>  <Rbt.Receptor>
/home/v/Desktop/r.prm

>  <SCORE>
7.49264

>  <SCORE.INTER>
8.4

>  <SCORE.INTER.CONST>
1

>  <SCORE.INTER.POLAR>
0

>  <SCORE.INTER.ROT>
3

>  <SCORE.INTER.SOLV>
0

>  <SCORE.INTER.VDW>
0

>  <SCORE.INTER.norm>
0.6

>  <SCORE.INTRA>
-0.907358

>  <SCORE.INTRA.DIHEDRAL>
-1.61113

>  <SCORE.INTRA.DIHEDRAL.0>
1.6411

>  <SCORE.INTRA.POLAR>
0

>  <SCORE.INTRA.POLAR.0>
0

>  <SCORE.INTRA.REPUL>
0

>  <SCORE.INTRA.REPUL.0>
0

>  <SCORE.INTRA.SOLV>
-0.296308

>  <SCORE.INTRA.SOLV.lig_0>
-16.0602

>  <SCORE.INTRA.VDW>
0.0463587

>  <SCORE.INTRA.VDW.0>
-0.639572

>  <SCORE.INTRA.norm>
-0.0648113

>  <SCORE.RESTR>
0

>  <SCORE.RESTR.CAVITY>
0

>  <SCORE.RESTR.norm>
0

>  <SCORE.SYSTEM>
0

>  <SCORE.SYSTEM.CONST>
0

>  <SCORE.SYSTEM.DIHEDRAL>
0

>  <SCORE.SYSTEM.SOLV>
0

>  <SCORE.SYSTEM.norm>
0

>  <SCORE.heavy>
14

>  <SCORE.norm>
0.535189

$$$$
ligand.pdb
  rDOCK(R)          3D
libRbt.so/2013.1/901 2013/11/27
 14 14  0  0  0  0  0  0  0  0999 V2000
   15.1051   -7.7514   -4.0770 C   0  0  0  0  0  0
   15.2277   -6.3676  -11.9181 C   0  0  0  0  0  0
   15.1520   -8.4092   -5.4466 C   0  0  0  0  0  0
   15.0734   -7.4046   -6.5956 C   0  0  0  0  0  0
   15.0164   -7.3501   -9.0524 C   0  0  0  0  0  0
   15.1937   -7.7028  -11.5332 C   0  0  0  0  0  0
   15.2404   -8.6889  -12.5083 C   0  0  0  0  0  0
   15.3346   -8.3411  -13.8477 C   0  0  0  0  0  0
   15.3538   -7.0169  -14.2237 C   0  0  0  0  0  0
   15.3063   -6.0348  -13.2632 C   0  0  0  0  0  0
   15.0942   -8.0490   -7.8976 N   0  0  0  0  0  0
   15.0995   -8.1226  -10.1842 N   0  0  0  0  0  0
   14.8724   -6.1208   -9.0786 O   0  0  0  0  0  0
   16.3462   -9.1689   -5.5803 O   0  0  0  0  0  0
  2 10  2  0  0  0
  2  6  1  0  0  0
  3  4  1  0  0  0
  3  1  1  0  0  0
  4 11  1  0  0  0
  5 11  1  0  0  0
  5 12  1  0  0  0
  6  7  2  0  0  0
  7  8  1  0  0  0
  9  8  2  0  0  0
 10  9  1  0  0  0
 12  6  1  0  0  0
 13  5  2  0  0  0
 14  3  1  0  0  0
M  END
>  <CHROM.1>
-178.92733763,179.10183800,0.56174839,15.25294544,-7.61652483,-9.49697443
1.50334015,-1.34500154,1.61283168

>  <Name>
ligand.pdb

>  <RI>
3.29373e+07

>  <Rbt.Current_Directory>
/home/v/Downloads/rDock_2013.1_src/bin

>  <Rbt.Executable>
rbdock ($Id: //depot/dev/client3/rdock/2013.1/src/exe/rbdock.cxx#4 $)

>  <Rbt.Library>
libRbt.so (2013.1, Build901 2013/11/27)

>  <Rbt.Parameter_File>
/home/v/Downloads/rDock_2013.1_src/data/scripts/dock_solv.prm

>  <Rbt.Receptor>
/home/v/Desktop/r.prm

>  <SCORE>
7.49212

>  <SCORE.INTER>
8.4

>  <SCORE.INTER.CONST>
1

>  <SCORE.INTER.POLAR>
0

>  <SCORE.INTER.ROT>
3

>  <SCORE.INTER.SOLV>
0

>  <SCORE.INTER.VDW>
0

>  <SCORE.INTER.norm>
0.6

>  <SCORE.INTRA>
-0.907885

>  <SCORE.INTRA.DIHEDRAL>
-1.6175

>  <SCORE.INTRA.DIHEDRAL.0>
1.6411

>  <SCORE.INTRA.POLAR>
0

>  <SCORE.INTRA.POLAR.0>
0

>  <SCORE.INTRA.REPUL>
0

>  <SCORE.INTRA.REPUL.0>
0

>  <SCORE.INTRA.SOLV>
-0.293554

>  <SCORE.INTRA.SOLV.lig_0>
-16.0602

>  <SCORE.INTRA.VDW>
0.0476441

>  <SCORE.INTRA.VDW.0>
-0.639572

>  <SCORE.INTRA.norm>
-0.0648489

>  <SCORE.RESTR>
0

>  <SCORE.RESTR.CAVITY>
0

>  <SCORE.RESTR.norm>
0

>  <SCORE.SYSTEM>
0

>  <SCORE.SYSTEM.CONST>
0

>  <SCORE.SYSTEM.DIHEDRAL>
0

>  <SCORE.SYSTEM.SOLV>
0

>  <SCORE.SYSTEM.norm>
0

>  <SCORE.heavy>
14

>  <SCORE.norm>
0.535151

$$$$
ligand.pdb
  rDOCK(R)          3D
libRbt.so/2013.1/901 2013/11/27
 14 14  0  0  0  0  0  0  0  0999 V2000
    9.9942   -6.7151  -15.6119 C   0  0  0  0  0  0
   14.5065   -9.8317   -9.8370 C   0  0  0  0  0  0
   10.6026   -8.0017  -15.0779 C   0  0  0  0  0  0
   11.4755   -7.7829  -13.8426 C   0  0  0  0  0  0
   12.9077   -9.0487  -12.2972 C   0  0  0  0  0  0
   14.0972  -10.7089  -10.8345 C   0  0  0  0  0  0
   14.4410  -12.0497  -10.7387 C   0  0  0  0  0  0
   15.1714  -12.5063   -9.6515 C   0  0  0  0  0  0
   15.5860  -11.6304   -8.6738 C   0  0  0  0  0  0
   15.2503  -10.3004   -8.7631 C   0  0  0  0  0  0
   12.0839   -9.0142  -13.3687 N   0  0  0  0  0  0
   13.3494  -10.3060  -11.9675 N   0  0  0  0  0  0
   13.2387   -8.0289  -11.6784 O   0  0  0  0  0  0
    9.5741   -8.9289  -14.7563 O   0  0  0  0  0  0
  2 10  2  0  0  0
  2  6  1  0  0  0
  3  4  1  0  0  0
  3  1  1  0  0  0
  4 11  1  0  0  0
  5 11  1  0  0  0
  5 12  1  0  0  0
  6  7  2  0  0  0
  7  8  1  0  0  0
  9  8  2  0  0  0
 10  9  1  0  0  0
 12  6  1  0  0  0
 13  5  2  0  0  0
 14  3  1  0  0  0
M  END
>  <CHROM.1>
-178.17838529,179.20394808,0.29362033,12.92131412,-9.55362947,-12.03588565
-2.69427104,0.86220119,-3.12418631

>  <Name>
ligand.pdb

>  <RI>
3.29373e+07

>  <Rbt.Current_Directory>
/home/v/Downloads/rDock_2013.1_src/bin

>  <Rbt.Executable>
rbdock ($Id: //depot/dev/client3/rdock/2013.1/src/exe/rbdock.cxx#4 $)

>  <Rbt.Library>
libRbt.so (2013.1, Build901 2013/11/27)

>  <Rbt.Parameter_File>
/home/v/Downloads/rDock_2013.1_src/data/scripts/dock_solv.prm

>  <Rbt.Receptor>
/home/v/Desktop/r.prm

>  <SCORE>
7.49262

>  <SCORE.INTER>
8.4

>  <SCORE.INTER.CONST>
1

>  <SCORE.INTER.POLAR>
0

>  <SCORE.INTER.ROT>
3

>  <SCORE.INTER.SOLV>
0

>  <SCORE.INTER.VDW>
0

>  <SCORE.INTER.norm>
0.6

>  <SCORE.INTRA>
-0.907383

>  <SCORE.INTRA.DIHEDRAL>
-1.61002

>  <SCORE.INTRA.DIHEDRAL.0>
1.6411

>  <SCORE.INTRA.POLAR>
0

>  <SCORE.INTRA.POLAR.0>
0

>  <SCORE.INTRA.REPUL>
0

>  <SCORE.INTRA.REPUL.0>
0

>  <SCORE.INTRA.SOLV>
-0.29676

>  <SCORE.INTRA.SOLV.lig_0>
-16.0602

>  <SCORE.INTRA.VDW>
0.0460055

>  <SCORE.INTRA.VDW.0>
-0.639572

>  <SCORE.INTRA.norm>
-0.0648131

>  <SCORE.RESTR>
0

>  <SCORE.RESTR.CAVITY>
0

>  <SCORE.RESTR.norm>
0

>  <SCORE.SYSTEM>
0

>  <SCORE.SYSTEM.CONST>
0

>  <SCORE.SYSTEM.DIHEDRAL>
0

>  <SCORE.SYSTEM.SOLV>
0

>  <SCORE.SYSTEM.norm>
0

>  <SCORE.heavy>
14

>  <SCORE.norm>
0.535187

$$$$
ligand.pdb
  rDOCK(R)          3D
libRbt.so/2013.1/901 2013/11/27
 14 14  0  0  0  0  0  0  0  0999 V2000
   10.1575   -2.5631  -13.3934 C   0  0  0  0  0  0
   15.9178   -7.3874  -10.7595 C   0  0  0  0  0  0
   11.5039   -3.1804  -13.7351 C   0  0  0  0  0  0
   12.0857   -4.0153  -12.5948 C   0  0  0  0  0  0
   14.0779   -5.3534  -12.0632 C   0  0  0  0  0  0
   16.1456   -6.7780  -11.9878 C   0  0  0  0  0  0
   17.3025   -7.0837  -12.6902 C   0  0  0  0  0  0
   18.2097   -7.9979  -12.1753 C   0  0  0  0  0  0
   17.9856   -8.5878  -10.9518 C   0  0  0  0  0  0
   16.8423   -8.2883  -10.2498 C   0  0  0  0  0  0
   13.3818   -4.5812  -12.9277 N   0  0  0  0  0  0
   15.2589   -5.8386  -12.5678 N   0  0  0  0  0  0
   13.6827   -5.5896  -10.9141 O   0  0  0  0  0  0
   11.3838   -3.9998  -14.8906 O   0  0  0  0  0  0
  2 10  2  0  0  0
  2  6  1  0  0  0
  3  4  1  0  0  0
  3  1  1  0  0  0
  4 11  1  0  0  0
  5 11  1  0  0  0
  5 12  1  0  0  0
  6  7  2  0  0  0
  7  8  1  0  0  0
  9  8  2  0  0  0
 10  9  1  0  0  0
 12  6  1  0  0  0
 13  5  2  0  0  0
 14  3  1  0  0  0
M  END
>  <CHROM.1>
-179.07803820,179.93869161,0.89846376,14.43556822,-5.71926132,-12.31902579
2.69685813,0.54794296,-1.29749888

>  <Name>
ligand.pdb

>  <RI>
3.29373e+07

>  <Rbt.Current_Directory>
/home/v/Downloads/rDock_2013.1_src/bin

>  <Rbt.Executable>
rbdock ($Id: //depot/dev/client3/rdock/2013.1/src/exe/rbdock.cxx#4 $)

>  <Rbt.Library>
libRbt.so (2013.1, Build901 2013/11/27)

>  <Rbt.Parameter_File>
/home/v/Downloads/rDock_2013.1_src/data/scripts/dock_solv.prm

>  <Rbt.Receptor>
/home/v/Desktop/r.prm

>  <SCORE>
7.4923

>  <SCORE.INTER>
8.4

>  <SCORE.INTER.CONST>
1

>  <SCORE.INTER.POLAR>
0

>  <SCORE.INTER.ROT>
3

>  <SCORE.INTER.SOLV>
0

>  <SCORE.INTER.VDW>
0

>  <SCORE.INTER.norm>
0.6

>  <SCORE.INTRA>
-0.907704

>  <SCORE.INTRA.DIHEDRAL>
-1.61799

>  <SCORE.INTRA.DIHEDRAL.0>
1.6411

>  <SCORE.INTRA.POLAR>
0

>  <SCORE.INTRA.POLAR.0>
0

>  <SCORE.INTRA.REPUL>
0

>  <SCORE.INTRA.REPUL.0>
0

>  <SCORE.INTRA.SOLV>
-0.291778

>  <SCORE.INTRA.SOLV.lig_0>
-16.0602

>  <SCORE.INTRA.VDW>
0.0471779

>  <SCORE.INTRA.VDW.0>
-0.639572

>  <SCORE.INTRA.norm>
-0.064836

>  <SCORE.RESTR>
0

>  <SCORE.RESTR.CAVITY>
0

>  <SCORE.RESTR.norm>
0

>  <SCORE.SYSTEM>
0

>  <SCORE.SYSTEM.CONST>
0

>  <SCORE.SYSTEM.DIHEDRAL>
0

>  <SCORE.SYSTEM.SOLV>
0

>  <SCORE.SYSTEM.norm>
0

>  <SCORE.heavy>
14

>  <SCORE.norm>
0.535164

$$$$
ligand.pdb
  rDOCK(R)          3D
libRbt.so/2013.1/901 2013/11/27
 14 14  0  0  0  0  0  0  0  0999 V2000
   16.2654   -5.9167  -12.3173 C   0  0  0  0  0  0
   20.8575  -10.0118   -7.2619 C   0  0  0  0  0  0
   17.4426   -6.8731  -12.2161 C   0  0  0  0  0  0
   17.8281   -7.1966  -10.7730 C   0  0  0  0  0  0
   19.4847   -8.5022   -9.5110 C   0  0  0  0  0  0
   21.1923  -10.1080   -8.6075 C   0  0  0  0  0  0
   22.2382  -10.9373   -8.9866 C   0  0  0  0  0  0
   22.9278  -11.6702   -8.0321 C   0  0  0  0  0  0
   22.6009  -11.5603   -6.6994 C   0  0  0  0  0  0
   21.5670  -10.7393   -6.3166 C   0  0  0  0  0  0
   18.9665   -8.0956  -10.6918 N   0  0  0  0  0  0
   20.5270   -9.3878   -9.6293 N   0  0  0  0  0  0
   19.0575   -8.0982   -8.4216 O   0  0  0  0  0  0
   17.1434   -8.0856  -12.8954 O   0  0  0  0  0  0
  2 10  2  0  0  0
  2  6  1  0  0  0
  3  4  1  0  0  0
  3  1  1  0  0  0
  4 11  1  0  0  0
  5 11  1  0  0  0
  5 12  1  0  0  0
  6  7  2  0  0  0
  7  8  1  0  0  0
  9  8  2  0  0  0
 10  9  1  0  0  0
 12  6  1  0  0  0
 13  5  2  0  0  0
 14  3  1  0  0  0
M  END
>  <CHROM.1>
-179.14544671,179.29068479,0.14481552,19.75432623,-9.00431353,-9.54039156
2.62874229,0.76451242,-1.73799448

>  <Name>
ligand.pdb

>  <RI>
3.29373e+07

>  <Rbt.Current_Directory>
/home/v/Downloads/rDock_2013.1_src/bin

>  <Rbt.Executable>
rbdock ($Id: //depot/dev/client3/rdock/2013.1/src/exe/rbdock.cxx#4 $)

>  <Rbt.Library>
libRbt.so (2013.1, Build901 2013/11/27)

>  <Rbt.Parameter_File>
/home/v/Downloads/rDock_2013.1_src/data/scripts/dock_solv.prm

>  <Rbt.Receptor>
/home/v/Desktop/r.prm

>  <SCORE>
7.49254

>  <SCORE.INTER>
8.4

>  <SCORE.INTER.CONST>
1

>  <SCORE.INTER.POLAR>
0

>  <SCORE.INTER.ROT>
3

>  <SCORE.INTER.SOLV>
0

>  <SCORE.INTER.VDW>
0

>  <SCORE.INTER.norm>
0.6

>  <SCORE.INTRA>
-0.907465

>  <SCORE.INTRA.DIHEDRAL>
-1.62055

>  <SCORE.INTRA.DIHEDRAL.0>
1.6411

>  <SCORE.INTRA.POLAR>
0

>  <SCORE.INTRA.POLAR.0>
0

>  <SCORE.INTRA.REPUL>
0

>  <SCORE.INTRA.REPUL.0>
0

>  <SCORE.INTRA.SOLV>
-0.292346

>  <SCORE.INTRA.SOLV.lig_0>
-16.0602

>  <SCORE.INTRA.VDW>
0.0489832

>  <SCORE.INTRA.VDW.0>
-0.639572

>  <SCORE.INTRA.norm>
-0.0648189

>  <SCORE.RESTR>
0

>  <SCORE.RESTR.CAVITY>
0

>  <SCORE.RESTR.norm>
0

>  <SCORE.SYSTEM>
0

>  <SCORE.SYSTEM.CONST>
0

>  <SCORE.SYSTEM.DIHEDRAL>
0

>  <SCORE.SYSTEM.SOLV>
0

>  <SCORE.SYSTEM.norm>
0

>  <SCORE.heavy>
14

>  <SCORE.norm>
0.535181

$$$$
ligand.pdb
  rDOCK(R)          3D
libRbt.so/2013.1/901 2013/11/27
 14 14  0  0  0  0  0  0  0  0999 V2000
   15.7319   -3.2715  -13.1693 C   0  0  0  0  0  0
   17.2304  -10.7804  -15.3582 C   0  0  0  0  0  0
   15.5221   -4.7311  -12.8002 C   0  0  0  0  0  0
   16.0952   -5.6982  -13.8355 C   0  0  0  0  0  0
   16.2842   -8.1119  -14.2600 C   0  0  0  0  0  0
   16.4424  -10.6187  -14.2246 C   0  0  0  0  0  0
   16.0301  -11.7419  -13.5219 C   0  0  0  0  0  0
   16.4146  -13.0069  -13.9414 C   0  0  0  0  0  0
   17.1834  -13.1616  -15.0728 C   0  0  0  0  0  0
   17.5941  -12.0534  -15.7747 C   0  0  0  0  0  0
   15.8629   -7.0886  -13.4833 N   0  0  0  0  0  0
   16.0180   -9.3561  -13.7444 N   0  0  0  0  0  0
   16.8512   -7.9343  -15.3461 O   0  0  0  0  0  0
   16.1162   -5.0034  -11.5376 O   0  0  0  0  0  0
  2 10  2  0  0  0
  2  6  1  0  0  0
  3  4  1  0  0  0
  3  1  1  0  0  0
  4 11  1  0  0  0
  5 11  1  0  0  0
  5 12  1  0  0  0
  6  7  2  0  0  0
  7  8  1  0  0  0
  9  8  2  0  0  0
 10  9  1  0  0  0
 12  6  1  0  0  0
 13  5  2  0  0  0
 14  3  1  0  0  0
M  END
>  <CHROM.1>
-178.80350568,179.90484219,-0.35081664,16.37438268,-8.59702544,-13.97119435
-1.93819630,-1.20417760,3.03844721

>  <Name>
ligand.pdb

>  <RI>
3.29373e+07

>  <Rbt.Current_Directory>
/home/v/Downloads/rDock_2013.1_src/bin

>  <Rbt.Executable>
rbdock ($Id: //depot/dev/client3/rdock/2013.1/src/exe/rbdock.cxx#4 $)

>  <Rbt.Library>
libRbt.so (2013.1, Build901 2013/11/27)

>  <Rbt.Parameter_File>
/home/v/Downloads/rDock_2013.1_src/data/scripts/dock_solv.prm

>  <Rbt.Receptor>
/home/v/Desktop/r.prm

>  <SCORE>
7.49276

>  <SCORE.INTER>
8.4

>  <SCORE.INTER.CONST>
1

>  <SCORE.INTER.POLAR>
0

>  <SCORE.INTER.ROT>
3

>  <SCORE.INTER.SOLV>
0

>  <SCORE.INTER.VDW>
0

>  <SCORE.INTER.norm>
0.6

>  <SCORE.INTRA>
-0.907239

>  <SCORE.INTRA.DIHEDRAL>
-1.61858

>  <SCORE.INTRA.DIHEDRAL.0>
1.6411

>  <SCORE.INTRA.POLAR>
0

>  <SCORE.INTRA.POLAR.0>
0

>  <SCORE.INTRA.REPUL>
0

>  <SCORE.INTRA.REPUL.0>
0

>  <SCORE.INTRA.SOLV>
-0.293065

>  <SCORE.INTRA.SOLV.lig_0>
-16.0602

>  <SCORE.INTRA.VDW>
0.0485827

>  <SCORE.INTRA.VDW.0>
-0.639572

>  <SCORE.INTRA.norm>
-0.0648028

>  <SCORE.RESTR>
0

>  <SCORE.RESTR.CAVITY>
0

>  <SCORE.RESTR.norm>
0

>  <SCORE.SYSTEM>
0

>  <SCORE.SYSTEM.CONST>
0

>  <SCORE.SYSTEM.DIHEDRAL>
0

>  <SCORE.SYSTEM.SOLV>
0

>  <SCORE.SYSTEM.norm>
0

>  <SCORE.heavy>
14

>  <SCORE.norm>
0.535197

$$$$
ligand.pdb
  rDOCK(R)          3D
libRbt.so/2013.1/901 2013/11/27
 14 14  0  0  0  0  0  0  0  0999 V2000
   15.2596  -12.6788   -8.7183 C   0  0  0  0  0  0
   14.6430   -4.9833  -10.6704 C   0  0  0  0  0  0
   14.8664  -11.3023   -8.2071 C   0  0  0  0  0  0
   15.0904  -10.1954   -9.2368 C   0  0  0  0  0  0
   14.8937   -7.7550   -9.4549 C   0  0  0  0  0  0
   14.3566   -5.3033   -9.3485 C   0  0  0  0  0  0
   13.9449   -4.2993   -8.4837 C   0  0  0  0  0  0
   13.8082   -2.9972   -8.9417 C   0  0  0  0  0  0
   14.1067   -2.6837  -10.2485 C   0  0  0  0  0  0
   14.5167   -3.6730  -11.1103 C   0  0  0  0  0  0
   14.7485   -8.8810   -8.7206 N   0  0  0  0  0  0
   14.4749   -6.6118   -8.8204 N   0  0  0  0  0  0
   15.3732   -7.7611  -10.5962 O   0  0  0  0  0  0
   13.4986  -11.3003   -7.8194 O   0  0  0  0  0  0
  2 10  2  0  0  0
  2  6  1  0  0  0
  3  4  1  0  0  0
  3  1  1  0  0  0
  4 11  1  0  0  0
  5 11  1  0  0  0
  5 12  1  0  0  0
  6  7  2  0  0  0
  7  8  1  0  0  0
  9  8  2  0  0  0
 10  9  1  0  0  0
 12  6  1  0  0  0
 13  5  2  0  0  0
 14  3  1  0  0  0
M  END
>  <CHROM.1>
-178.25264087,178.73960518,1.30559743,14.54854608,-7.33344940,-9.29615692
-1.44074289,1.05246406,-0.28710872

>  <Name>
ligand.pdb

>  <RI>
3.29373e+07

>  <Rbt.Current_Directory>
/home/v/Downloads/rDock_2013.1_src/bin

>  <Rbt.Executable>
rbdock ($Id: //depot/dev/client3/rdock/2013.1/src/exe/rbdock.cxx#4 $)

>  <Rbt.Library>
libRbt.so (2013.1, Build901 2013/11/27)

>  <Rbt.Parameter_File>
/home/v/Downloads/rDock_2013.1_src/data/scripts/dock_solv.prm

>  <Rbt.Receptor>
/home/v/Desktop/r.prm

>  <SCORE>
7.49281

>  <SCORE.INTER>
8.4

>  <SCORE.INTER.CONST>
1

>  <SCORE.INTER.POLAR>
0

>  <SCORE.INTER.ROT>
3

>  <SCORE.INTER.SOLV>
0

>  <SCORE.INTER.VDW>
0

>  <SCORE.INTER.norm>
0.6

>  <SCORE.INTRA>
-0.907185

>  <SCORE.INTRA.DIHEDRAL>
-1.60581

>  <SCORE.INTRA.DIHEDRAL.0>
1.6411

>  <SCORE.INTRA.POLAR>
0

>  <SCORE.INTRA.POLAR.0>
0

>  <SCORE.INTRA.REPUL>
0

>  <SCORE.INTRA.REPUL.0>
0

>  <SCORE.INTRA.SOLV>
-0.297035

>  <SCORE.INTRA.SOLV.lig_0>
-16.0602

>  <SCORE.INTRA.VDW>
0.0442369

>  <SCORE.INTRA.VDW.0>
-0.639572

>  <SCORE.INTRA.norm>
-0.0647989

>  <SCORE.RESTR>
0

>  <SCORE.RESTR.CAVITY>
0

>  <SCORE.RESTR.norm>
0

>  <SCORE.SYSTEM>
0

>  <SCORE.SYSTEM.CONST>
0

>  <SCORE.SYSTEM.DIHEDRAL>
0

>  <SCORE.SYSTEM.SOLV>
0

>  <SCORE.SYSTEM.norm>
0

>  <SCORE.heavy>
14

>  <SCORE.norm>
0.535201

$$$$
ligand.pdb
  rDOCK(R)          3D
libRbt.so/2013.1/901 2013/11/27
 14 14  0  0  0  0  0  0  0  0999 V2000
   10.2230   -5.1493  -15.7337 C   0  0  0  0  0  0
   13.1897   -5.2477   -8.3437 C   0  0  0  0  0  0
   10.1091   -5.8013  -14.3653 C   0  0  0  0  0  0
   11.1546   -5.2945  -13.3724 C   0  0  0  0  0  0
   11.8937   -5.6665  -11.0579 C   0  0  0  0  0  0
   12.2041   -6.1880   -8.6202 C   0  0  0  0  0  0
   11.7642   -7.0251   -7.6048 C   0  0  0  0  0  0
   12.2941   -6.9106   -6.3281 C   0  0  0  0  0  0
   13.2799   -5.9868   -6.0635 C   0  0  0  0  0  0
   13.7217   -5.1554   -7.0651 C   0  0  0  0  0  0
   11.0586   -5.9542  -12.0815 N   0  0  0  0  0  0
   11.6227   -6.3537   -9.9007 N   0  0  0  0  0  0
   12.8263   -4.8595  -11.1657 O   0  0  0  0  0  0
    8.8137   -5.5748  -13.8253 O   0  0  0  0  0  0
  2 10  2  0  0  0
  2  6  1  0  0  0
  3  4  1  0  0  0
  3  1  1  0  0  0
  4 11  1  0  0  0
  5 11  1  0  0  0
  5 12  1  0  0  0
  6  7  2  0  0  0
  7  8  1  0  0  0
  9  8  2  0  0  0
 10  9  1  0  0  0
 12  6  1  0  0  0
 13  5  2  0  0  0
 14  3  1  0  0  0
M  END
>  <CHROM.1>
-178.31542917,179.47530292,0.02540965,11.67091649,-5.77240035,-10.54434169
-1.99374875,0.54461854,1.88870296

>  <Name>
ligand.pdb

>  <RI>
3.29373e+07

>  <Rbt.Current_Directory>
/home/v/Downloads/rDock_2013.1_src/bin

>  <Rbt.Executable>
rbdock ($Id: //depot/dev/client3/rdock/2013.1/src/exe/rbdock.cxx#4 $)

>  <Rbt.Library>
libRbt.so (2013.1, Build901 2013/11/27)

>  <Rbt.Parameter_File>
/home/v/Downloads/rDock_2013.1_src/data/scripts/dock_solv.prm

>  <Rbt.Receptor>
/home/v/Desktop/r.prm

>  <SCORE>
7.49254

>  <SCORE.INTER>
8.4

>  <SCORE.INTER.CONST>
1

>  <SCORE.INTER.POLAR>
0

>  <SCORE.INTER.ROT>
3

>  <SCORE.INTER.SOLV>
0

>  <SCORE.INTER.VDW>
0

>  <SCORE.INTER.norm>
0.6

>  <SCORE.INTRA>
-0.907464

>  <SCORE.INTRA.DIHEDRAL>
-1.61266

>  <SCORE.INTRA.DIHEDRAL.0>
1.6411

>  <SCORE.INTRA.POLAR>
0

>  <SCORE.INTRA.POLAR.0>
0

>  <SCORE.INTRA.REPUL>
0

>  <SCORE.INTRA.REPUL.0>
0

>  <SCORE.INTRA.SOLV>
-0.295798

>  <SCORE.INTRA.SOLV.lig_0>
-16.0602

>  <SCORE.INTRA.VDW>
0.0467647

>  <SCORE.INTRA.VDW.0>
-0.639572

>  <SCORE.INTRA.norm>
-0.0648188

>  <SCORE.RESTR>
0

>  <SCORE.RESTR.CAVITY>
0

>  <SCORE.RESTR.norm>
0

>  <SCORE.SYSTEM>
0

>  <SCORE.SYSTEM.CONST>
0

>  <SCORE.SYSTEM.DIHEDRAL>
0

>  <SCORE.SYSTEM.SOLV>
0

>  <SCORE.SYSTEM.norm>
0

>  <SCORE.heavy>
14

>  <SCORE.norm>
0.535181

$$$$
ligand.pdb
  rDOCK(R)          3D
libRbt.so/2013.1/901 2013/11/27
 14 14  0  0  0  0  0  0  0  0999 V2000
   21.3267  -11.2243   -7.2260 C   0  0  0  0  0  0
   16.6258   -4.9337   -8.5439 C   0  0  0  0  0  0
   20.5602  -10.4567   -8.2909 C   0  0  0  0  0  0
   19.7650   -9.2808   -7.7247 C   0  0  0  0  0  0
   18.2258   -7.5137   -8.4664 C   0  0  0  0  0  0
   16.8731   -5.7520   -9.6399 C   0  0  0  0  0  0
   16.3450   -5.4054  -10.8753 C   0  0  0  0  0  0
   15.5929   -4.2481  -11.0122 C   0  0  0  0  0  0
   15.3396   -3.4489   -9.9203 C   0  0  0  0  0  0
   15.8582   -3.7870   -8.6931 C   0  0  0  0  0  0
   19.0148   -8.5746   -8.7492 N   0  0  0  0  0  0
   17.6332   -6.9444   -9.5661 N   0  0  0  0  0  0
   18.0498   -7.1034   -7.3117 O   0  0  0  0  0  0
   21.4577   -9.9712   -9.2808 O   0  0  0  0  0  0
  2 10  2  0  0  0
  2  6  1  0  0  0
  3  4  1  0  0  0
  3  1  1  0  0  0
  4 11  1  0  0  0
  5 11  1  0  0  0
  5 12  1  0  0  0
  6  7  2  0  0  0
  7  8  1  0  0  0
  9  8  2  0  0  0
 10  9  1  0  0  0
 12  6  1  0  0  0
 13  5  2  0  0  0
 14  3  1  0  0  0
M  END
>  <CHROM.1>
-178.74547516,178.98117449,1.10676538,18.15262066,-7.16007273,-8.90606948
0.22853433,-0.88149640,1.57557085

>  <Name>
ligand.pdb

>  <RI>
3.29373e+07

>  <Rbt.Current_Directory>
/home/v/Downloads/rDock_2013.1_src/bin

>  <Rbt.Executable>
rbdock ($Id: //depot/dev/client3/rdock/2013.1/src/exe/rbdock.cxx#4 $)

>  <Rbt.Library>
libRbt.so (2013.1, Build901 2013/11/27)

>  <Rbt.Parameter_File>
/home/v/Downloads/rDock_2013.1_src/data/scripts/dock_solv.prm

>  <Rbt.Receptor>
/home/v/Desktop/r.prm

>  <SCORE>
7.49217

>  <SCORE.INTER>
8.4

>  <SCORE.INTER.CONST>
1

>  <SCORE.INTER.POLAR>
0

>  <SCORE.INTER.ROT>
3

>  <SCORE.INTER.SOLV>
0

>  <SCORE.INTER.VDW>
0

>  <SCORE.INTER.norm>
0.6

>  <SCORE.INTRA>
-0.907833

>  <SCORE.INTRA.DIHEDRAL>
-1.61318

>  <SCORE.INTRA.DIHEDRAL.0>
1.6411

>  <SCORE.INTRA.POLAR>
0

>  <SCORE.INTRA.POLAR.0>
0

>  <SCORE.INTRA.REPUL>
0

>  <SCORE.INTRA.REPUL.0>
0

>  <SCORE.INTRA.SOLV>
-0.294525

>  <SCORE.INTRA.SOLV.lig_0>
-16.0602

>  <SCORE.INTRA.VDW>
0.0460177

>  <SCORE.INTRA.VDW.0>
-0.639572

>  <SCORE.INTRA.norm>
-0.0648452

>  <SCORE.RESTR>
0

>  <SCORE.RESTR.CAVITY>
0

>  <SCORE.RESTR.norm>
0

>  <SCORE.SYSTEM>
0

>  <SCORE.SYSTEM.CONST>
0

>  <SCORE.SYSTEM.DIHEDRAL>
0

>  <SCORE.SYSTEM.SOLV>
0

>  <SCORE.SYSTEM.norm>
0

>  <SCORE.heavy>
14

>  <SCORE.norm>
0.535155

$$$$
ligand.pdb
  rDOCK(R)          3D
libRbt.so/2013.1/901 2013/11/27
 14 14  0  0  0  0  0  0  0  0999 V2000
   14.5664  -13.4344   -9.3248 C   0  0  0  0  0  0
   15.6597   -5.5771  -10.0207 C   0  0  0  0  0  0
   14.4169  -12.0986   -8.6150 C   0  0  0  0  0  0
   14.9554  -10.9240   -9.4311 C   0  0  0  0  0  0
   15.2509   -8.4895   -9.2640 C   0  0  0  0  0  0
   15.1907   -6.0232   -8.7906 C   0  0  0  0  0  0
   14.8881   -5.0945   -7.8051 C   0  0  0  0  0  0
   15.0394   -3.7385   -8.0548 C   0  0  0  0  0  0
   15.5175   -3.3033   -9.2702 C   0  0  0  0  0  0
   15.8209   -4.2179  -10.2505 C   0  0  0  0  0  0
   14.8353   -9.6587   -8.7271 N   0  0  0  0  0  0
   15.0134   -7.3920   -8.4743 N   0  0  0  0  0  0
   15.8061   -8.4238  -10.3685 O   0  0  0  0  0  0
   13.0487  -11.8597   -8.3119 O   0  0  0  0  0  0
  2 10  2  0  0  0
  2  6  1  0  0  0
  3  4  1  0  0  0
  3  1  1  0  0  0
  4 11  1  0  0  0
  5 11  1  0  0  0
  5 12  1  0  0  0
  6  7  2  0  0  0
  7  8  1  0  0  0
  9  8  2  0  0  0
 10  9  1  0  0  0
 12  6  1  0  0  0
 13  5  2  0  0  0
 14  3  1  0  0  0
M  END
>  <CHROM.1>
-178.61119176,179.93717991,-0.04983884,14.97486519,-8.03260909,-9.06014105
-1.83068616,0.98213537,0.20350849

>  <Name>
ligand.pdb

>  <RI>
3.29373e+07

>  <Rbt.Current_Directory>
/home/v/Downloads/rDock_2013.1_src/bin

>  <Rbt.Executable>
rbdock ($Id: //depot/dev/client3/rdock/2013.1/src/exe/rbdock.cxx#4 $)

>  <Rbt.Library>
libRbt.so (2013.1, Build901 2013/11/27)

>  <Rbt.Parameter_File>
/home/v/Downloads/rDock_2013.1_src/data/scripts/dock_solv.prm

>  <Rbt.Receptor>
/home/v/Desktop/r.prm

>  <SCORE>
7.49241

>  <SCORE.INTER>
8.4

>  <SCORE.INTER.CONST>
1

>  <SCORE.INTER.POLAR>
0

>  <SCORE.INTER.ROT>
3

>  <SCORE.INTER.SOLV>
0

>  <SCORE.INTER.VDW>
0

>  <SCORE.INTER.norm>
0.6

>  <SCORE.INTRA>
-0.907592

>  <SCORE.INTRA.DIHEDRAL>
-1.61649

>  <SCORE.INTRA.DIHEDRAL.0>
1.6411

>  <SCORE.INTRA.POLAR>
0

>  <SCORE.INTRA.POLAR.0>
0

>  <SCORE.INTRA.REPUL>
0

>  <SCORE.INTRA.REPUL.0>
0

>  <SCORE.INTRA.SOLV>
-0.293862

>  <SCORE.INTRA.SOLV.lig_0>
-16.0602

>  <SCORE.INTRA.VDW>
0.047583

>  <SCORE.INTRA.VDW.0>
-0.639572

>  <SCORE.INTRA.norm>
-0.064828

>  <SCORE.RESTR>
0

>  <SCORE.RESTR.CAVITY>
0

>  <SCORE.RESTR.norm>
0

>  <SCORE.SYSTEM>
0

>  <SCORE.SYSTEM.CONST>
0

>  <SCORE.SYSTEM.DIHEDRAL>
0

>  <SCORE.SYSTEM.SOLV>
0

>  <SCORE.SYSTEM.norm>
0

>  <SCORE.heavy>
14

>  <SCORE.norm>
0.535172

$$$$
ligand.pdb
  rDOCK(R)          3D
libRbt.so/2013.1/901 2013/11/27
 14 14  0  0  0  0  0  0  0  0999 V2000
   13.8067  -10.9548  -13.7884 C   0  0  0  0  0  0
   15.8808   -5.6375   -8.2362 C   0  0  0  0  0  0
   13.3898   -9.6696  -13.0919 C   0  0  0  0  0  0
   14.3531   -9.2515  -11.9816 C   0  0  0  0  0  0
   14.6226   -7.4984  -10.2799 C   0  0  0  0  0  0
   14.6428   -5.4419   -8.8373 C   0  0  0  0  0  0
   13.8868   -4.3336   -8.4832 C   0  0  0  0  0  0
   14.3717   -3.4275   -7.5517 C   0  0  0  0  0  0
   15.5923   -3.6338   -6.9494 C   0  0  0  0  0  0
   16.3459   -4.7306   -7.2942 C   0  0  0  0  0  0
   13.9251   -8.0397  -11.3039 N   0  0  0  0  0  0
   14.0931   -6.3282   -9.7950 N   0  0  0  0  0  0
   15.6439   -8.0240   -9.8181 O   0  0  0  0  0  0
   13.2922   -8.6134  -14.0385 O   0  0  0  0  0  0
  2 10  2  0  0  0
  2  6  1  0  0  0
  3  4  1  0  0  0
  3  1  1  0  0  0
  4 11  1  0  0  0
  5 11  1  0  0  0
  5 12  1  0  0  0
  6  7  2  0  0  0
  7  8  1  0  0  0
  9  8  2  0  0  0
 10  9  1  0  0  0
 12  6  1  0  0  0
 13  5  2  0  0  0
 14  3  1  0  0  0
M  END
>  <CHROM.1>
-178.61724413,179.33659539,1.14883767,14.54210093,-6.93771099,-10.21952401
-1.81797486,-0.69702036,0.64359384

>  <Name>
ligand.pdb

>  <RI>
3.29373e+07

>  <Rbt.Current_Directory>
/home/v/Downloads/rDock_2013.1_src/bin

>  <Rbt.Executable>
rbdock ($Id: //depot/dev/client3/rdock/2013.1/src/exe/rbdock.cxx#4 $)

>  <Rbt.Library>
libRbt.so (2013.1, Build901 2013/11/27)

>  <Rbt.Parameter_File>
/home/v/Downloads/rDock_2013.1_src/data/scripts/dock_solv.prm

>  <Rbt.Receptor>
/home/v/Desktop/r.prm

>  <SCORE>
7.4921

>  <SCORE.INTER>
8.4

>  <SCORE.INTER.CONST>
1

>  <SCORE.INTER.POLAR>
0

>  <SCORE.INTER.ROT>
3

>  <SCORE.INTER.SOLV>
0

>  <SCORE.INTER.VDW>
0

>  <SCORE.INTER.norm>
0.6

>  <SCORE.INTRA>
-0.907902

>  <SCORE.INTRA.DIHEDRAL>
-1.61211

>  <SCORE.INTRA.DIHEDRAL.0>
1.6411

>  <SCORE.INTRA.POLAR>
0

>  <SCORE.INTRA.POLAR.0>
0

>  <SCORE.INTRA.REPUL>
0

>  <SCORE.INTRA.REPUL.0>
0

>  <SCORE.INTRA.SOLV>
-0.294637

>  <SCORE.INTRA.SOLV.lig_0>
-16.0602

>  <SCORE.INTRA.VDW>
0.0454696

>  <SCORE.INTRA.VDW.0>
-0.639572

>  <SCORE.INTRA.norm>
-0.0648502

>  <SCORE.RESTR>
0

>  <SCORE.RESTR.CAVITY>
0

>  <SCORE.RESTR.norm>
0

>  <SCORE.SYSTEM>
0

>  <SCORE.SYSTEM.CONST>
0

>  <SCORE.SYSTEM.DIHEDRAL>
0

>  <SCORE.SYSTEM.SOLV>
0

>  <SCORE.SYSTEM.norm>
0

>  <SCORE.heavy>
14

>  <SCORE.norm>
0.53515

$$$$
ligand.pdb
  rDOCK(R)          3D
libRbt.so/2013.1/901 2013/11/27
 14 14  0  0  0  0  0  0  0  0999 V2000
   14.2859  -15.5923  -12.5023 C   0  0  0  0  0  0
   19.0021   -9.1770  -12.5156 C   0  0  0  0  0  0
   14.5065  -14.2200  -11.8868 C   0  0  0  0  0  0
   15.7838  -13.5414  -12.3806 C   0  0  0  0  0  0
   17.0687  -11.4722  -12.0502 C   0  0  0  0  0  0
   17.9655   -9.1713  -11.5896 C   0  0  0  0  0  0
   17.7842   -8.0559  -10.7844 C   0  0  0  0  0  0
   18.6207   -6.9573  -10.9164 C   0  0  0  0  0  0
   19.6544   -6.9743  -11.8255 C   0  0  0  0  0  0
   19.8408   -8.0766  -12.6253 C   0  0  0  0  0  0
   15.9961  -12.2436  -11.7628 N   0  0  0  0  0  0
   17.0775  -10.2591  -11.4075 N   0  0  0  0  0  0
   17.9663  -11.8393  -12.8196 O   0  0  0  0  0  0
   13.3980  -13.3763  -12.1702 O   0  0  0  0  0  0
  2 10  2  0  0  0
  2  6  1  0  0  0
  3  4  1  0  0  0
  3  1  1  0  0  0
  4 11  1  0  0  0
  5 11  1  0  0  0
  5 12  1  0  0  0
  6  7  2  0  0  0
  7  8  1  0  0  0
  9  8  2  0  0  0
 10  9  1  0  0  0
 12  6  1  0  0  0
 13  5  2  0  0  0
 14  3  1  0  0  0
M  END
>  <CHROM.1>
-178.77561002,179.69739514,1.01730190,16.97834880,-10.91447951,-11.96839176
-2.25129694,0.43061750,0.41006869

>  <Name>
ligand.pdb

>  <RI>
3.29373e+07

>  <Rbt.Current_Directory>
/home/v/Downloads/rDock_2013.1_src/bin

>  <Rbt.Executable>
rbdock ($Id: //depot/dev/client3/rdock/2013.1/src/exe/rbdock.cxx#4 $)

>  <Rbt.Library>
libRbt.so (2013.1, Build901 2013/11/27)

>  <Rbt.Parameter_File>
/home/v/Downloads/rDock_2013.1_src/data/scripts/dock_solv.prm

>  <Rbt.Receptor>
/home/v/Desktop/r.prm

>  <SCORE>
7.49203

>  <SCORE.INTER>
8.4

>  <SCORE.INTER.CONST>
1

>  <SCORE.INTER.POLAR>
0

>  <SCORE.INTER.ROT>
3

>  <SCORE.INTER.SOLV>
0

>  <SCORE.INTER.VDW>
0

>  <SCORE.INTER.norm>
0.6

>  <SCORE.INTRA>
-0.907975

>  <SCORE.INTRA.DIHEDRAL>
-1.61473

>  <SCORE.INTRA.DIHEDRAL.0>
1.6411

>  <SCORE.INTRA.POLAR>
0

>  <SCORE.INTRA.POLAR.0>
0

>  <SCORE.INTRA.REPUL>
0

>  <SCORE.INTRA.REPUL.0>
0

>  <SCORE.INTRA.SOLV>
-0.29345

>  <SCORE.INTRA.SOLV.lig_0>
-16.0602

>  <SCORE.INTRA.VDW>
0.0461159

>  <SCORE.INTRA.VDW.0>
-0.639572

>  <SCORE.INTRA.norm>
-0.0648554

>  <SCORE.RESTR>
0

>  <SCORE.RESTR.CAVITY>
0

>  <SCORE.RESTR.norm>
0

>  <SCORE.SYSTEM>
0

>  <SCORE.SYSTEM.CONST>
0

>  <SCORE.SYSTEM.DIHEDRAL>
0

>  <SCORE.SYSTEM.SOLV>
0

>  <SCORE.SYSTEM.norm>
0

>  <SCORE.heavy>
14

>  <SCORE.norm>
0.535145

$$$$
ligand.pdb
  rDOCK(R)          3D
libRbt.so/2013.1/901 2013/11/27
 14 14  0  0  0  0  0  0  0  0999 V2000
   17.3205   -9.8500  -13.1016 C   0  0  0  0  0  0
   10.8983   -5.2236  -13.9747 C   0  0  0  0  0  0
   16.6784   -8.5361  -12.6868 C   0  0  0  0  0  0
   15.3455   -8.2744  -13.3873 C   0  0  0  0  0  0
   13.5815   -6.5669  -13.5075 C   0  0  0  0  0  0
   11.9266   -4.7025  -13.1980 C   0  0  0  0  0  0
   11.7537   -3.4690  -12.5866 C   0  0  0  0  0  0
   10.5622   -2.7757  -12.7399 C   0  0  0  0  0  0
    9.5527   -3.2903  -13.5217 C   0  0  0  0  0  0
    9.7177   -4.5111  -14.1316 C   0  0  0  0  0  0
   14.7625   -6.9981  -13.0103 N   0  0  0  0  0  0
   13.1648   -5.3607  -13.0015 N   0  0  0  0  0  0
   12.9420   -7.2055  -14.3536 O   0  0  0  0  0  0
   16.4704   -8.5193  -11.2806 O   0  0  0  0  0  0
  2 10  2  0  0  0
  2  6  1  0  0  0
  3  4  1  0  0  0
  3  1  1  0  0  0
  4 11  1  0  0  0
  5 11  1  0  0  0
  5 12  1  0  0  0
  6  7  2  0  0  0
  7  8  1  0  0  0
  9  8  2  0  0  0
 10  9  1  0  0  0
 12  6  1  0  0  0
 13  5  2  0  0  0
 14  3  1  0  0  0
M  END
>  <CHROM.1>
-178.34830635,-179.76550909,0.26800413,13.30591571,-6.20372603,-13.16272360
0.44185312,0.56615634,-2.44012858

>  <Name>
ligand.pdb

>  <RI>
3.29373e+07

>  <Rbt.Current_Directory>
/home/v/Downloads/rDock_2013.1_src/bin

>  <Rbt.Executable>
rbdock ($Id: //depot/dev/client3/rdock/2013.1/src/exe/rbdock.cxx#4 $)

>  <Rbt.Library>
libRbt.so (2013.1, Build901 2013/11/27)

>  <Rbt.Parameter_File>
/home/v/Downloads/rDock_2013.1_src/data/scripts/dock_solv.prm

>  <Rbt.Receptor>
/home/v/Desktop/r.prm

>  <SCORE>
7.49252

>  <SCORE.INTER>
8.4

>  <SCORE.INTER.CONST>
1

>  <SCORE.INTER.POLAR>
0

>  <SCORE.INTER.ROT>
3

>  <SCORE.INTER.SOLV>
0

>  <SCORE.INTER.VDW>
0

>  <SCORE.INTER.norm>
0.6

>  <SCORE.INTRA>
-0.907476

>  <SCORE.INTRA.DIHEDRAL>
-1.61282

>  <SCORE.INTRA.DIHEDRAL.0>
1.6411

>  <SCORE.INTRA.POLAR>
0

>  <SCORE.INTRA.POLAR.0>
0

>  <SCORE.INTRA.REPUL>
0

>  <SCORE.INTRA.REPUL.0>
0

>  <SCORE.INTRA.SOLV>
-0.294609

>  <SCORE.INTRA.SOLV.lig_0>
-16.0602

>  <SCORE.INTRA.VDW>
0.0462366

>  <SCORE.INTRA.VDW.0>
-0.639572

>  <SCORE.INTRA.norm>
-0.0648197

>  <SCORE.RESTR>
0

>  <SCORE.RESTR.CAVITY>
0

>  <SCORE.RESTR.norm>
0

>  <SCORE.SYSTEM>
0

>  <SCORE.SYSTEM.CONST>
0

>  <SCORE.SYSTEM.DIHEDRAL>
0

>  <SCORE.SYSTEM.SOLV>
0

>  <SCORE.SYSTEM.norm>
0

>  <SCORE.heavy>
14

>  <SCORE.norm>
0.53518

$$$$
ligand.pdb
  rDOCK(R)          3D
libRbt.so/2013.1/901 2013/11/27
 14 14  0  0  0  0  0  0  0  0999 V2000
   11.5111   -8.5033   -9.5907 C   0  0  0  0  0  0
   17.9479  -10.5116   -5.3558 C   0  0  0  0  0  0
   12.8971   -8.0511   -9.1604 C   0  0  0  0  0  0
   13.5765   -9.0317   -8.2051 C   0  0  0  0  0  0
   15.6538   -9.2733   -6.9136 C   0  0  0  0  0  0
   17.9647   -9.2453   -5.9288 C   0  0  0  0  0  0
   19.0895   -8.4479   -5.7740 C   0  0  0  0  0  0
   20.1865   -8.9192   -5.0679 C   0  0  0  0  0  0
   20.1588  -10.1687   -4.4908 C   0  0  0  0  0  0
   19.0470  -10.9634   -4.6388 C   0  0  0  0  0  0
   14.8862   -8.5709   -7.7770 N   0  0  0  0  0  0
   16.8790   -8.7074   -6.6617 N   0  0  0  0  0  0
   15.2736  -10.3294   -6.3914 O   0  0  0  0  0  0
   13.7258   -7.8713  -10.3014 O   0  0  0  0  0  0
  2 10  2  0  0  0
  2  6  1  0  0  0
  3  4  1  0  0  0
  3  1  1  0  0  0
  4 11  1  0  0  0
  5 11  1  0  0  0
  5 12  1  0  0  0
  6  7  2  0  0  0
  7  8  1  0  0  0
  9  8  2  0  0  0
 10  9  1  0  0  0
 12  6  1  0  0  0
 13  5  2  0  0  0
 14  3  1  0  0  0
M  END
>  <CHROM.1>
-178.60244237,178.91131376,1.68154328,16.21001525,-9.16824341,-6.96536430
2.63610360,-0.35511561,-0.69209106

>  <Name>
ligand.pdb

>  <RI>
3.29373e+07

>  <Rbt.Current_Directory>
/home/v/Downloads/rDock_2013.1_src/bin

>  <Rbt.Executable>
rbdock ($Id: //depot/dev/client3/rdock/2013.1/src/exe/rbdock.cxx#4 $)

>  <Rbt.Library>
libRbt.so (2013.1, Build901 2013/11/27)

>  <Rbt.Parameter_File>
/home/v/Downloads/rDock_2013.1_src/data/scripts/dock_solv.prm

>  <Rbt.Receptor>
/home/v/Desktop/r.prm

>  <SCORE>
7.49275

>  <SCORE.INTER>
8.4

>  <SCORE.INTER.CONST>
1

>  <SCORE.INTER.POLAR>
0

>  <SCORE.INTER.ROT>
3

>  <SCORE.INTER.SOLV>
0

>  <SCORE.INTER.VDW>
0

>  <SCORE.INTER.norm>
0.6

>  <SCORE.INTRA>
-0.907251

>  <SCORE.INTRA.DIHEDRAL>
-1.60772

>  <SCORE.INTRA.DIHEDRAL.0>
1.6411

>  <SCORE.INTRA.POLAR>
0

>  <SCORE.INTRA.POLAR.0>
0

>  <SCORE.INTRA.REPUL>
0

>  <SCORE.INTRA.REPUL.0>
0

>  <SCORE.INTRA.SOLV>
-0.295276

>  <SCORE.INTRA.SOLV.lig_0>
-16.0602

>  <SCORE.INTRA.VDW>
0.0442481

>  <SCORE.INTRA.VDW.0>
-0.639572

>  <SCORE.INTRA.norm>
-0.0648036

>  <SCORE.RESTR>
0

>  <SCORE.RESTR.CAVITY>
0

>  <SCORE.RESTR.norm>
0

>  <SCORE.SYSTEM>
0

>  <SCORE.SYSTEM.CONST>
0

>  <SCORE.SYSTEM.DIHEDRAL>
0

>  <SCORE.SYSTEM.SOLV>
0

>  <SCORE.SYSTEM.norm>
0

>  <SCORE.heavy>
14

>  <SCORE.norm>
0.535196

$$$$
ligand.pdb
  rDOCK(R)          3D
libRbt.so/2013.1/901 2013/11/27
 14 14  0  0  0  0  0  0  0  0999 V2000
   13.4640   -2.6756  -13.4567 C   0  0  0  0  0  0
   12.0780  -10.3711  -11.9448 C   0  0  0  0  0  0
   12.8011   -3.9381  -13.9834 C   0  0  0  0  0  0
   13.0306   -5.1534  -13.0856 C   0  0  0  0  0  0
   12.5133   -7.5545  -12.9935 C   0  0  0  0  0  0
   11.6101   -9.8925  -13.1631 C   0  0  0  0  0  0
   10.8960  -10.7434  -13.9945 C   0  0  0  0  0  0
   10.6422  -12.0497  -13.6033 C   0  0  0  0  0  0
   11.1201  -12.5221  -12.4019 C   0  0  0  0  0  0
   11.8298  -11.6852  -11.5739 C   0  0  0  0  0  0
   12.4203   -6.3593  -13.6187 N   0  0  0  0  0  0
   11.8343   -8.5707  -13.6188 N   0  0  0  0  0  0
   13.1648   -7.7131  -11.9529 O   0  0  0  0  0  0
   11.4022   -3.7291  -14.1264 O   0  0  0  0  0  0
  2 10  2  0  0  0
  2  6  1  0  0  0
  3  4  1  0  0  0
  3  1  1  0  0  0
  4 11  1  0  0  0
  5 11  1  0  0  0
  5 12  1  0  0  0
  6  7  2  0  0  0
  7  8  1  0  0  0
  9  8  2  0  0  0
 10  9  1  0  0  0
 12  6  1  0  0  0
 13  5  2  0  0  0
 14  3  1  0  0  0
M  END
>  <CHROM.1>
-178.53457526,179.20032069,-0.08907954,12.08531496,-7.90985538,-13.11540236
-1.29943324,0.83743124,2.81816030

>  <Name>
ligand.pdb

>  <RI>
3.29373e+07

>  <Rbt.Current_Directory>
/home/v/Downloads/rDock_2013.1_src/bin

>  <Rbt.Executable>
rbdock ($Id: //depot/dev/client3/rdock/2013.1/src/exe/rbdock.cxx#4 $)

>  <Rbt.Library>
libRbt.so (2013.1, Build901 2013/11/27)

>  <Rbt.Parameter_File>
/home/v/Downloads/rDock_2013.1_src/data/scripts/dock_solv.prm

>  <Rbt.Receptor>
/home/v/Desktop/r.prm

>  <SCORE>
7.49245

>  <SCORE.INTER>
8.4

>  <SCORE.INTER.CONST>
1

>  <SCORE.INTER.POLAR>
0

>  <SCORE.INTER.ROT>
3

>  <SCORE.INTER.SOLV>
0

>  <SCORE.INTER.VDW>
0

>  <SCORE.INTER.norm>
0.6

>  <SCORE.INTRA>
-0.907545

>  <SCORE.INTRA.DIHEDRAL>
-1.61515

>  <SCORE.INTRA.DIHEDRAL.0>
1.6411

>  <SCORE.INTRA.POLAR>
0

>  <SCORE.INTRA.POLAR.0>
0

>  <SCORE.INTRA.REPUL>
0

>  <SCORE.INTRA.REPUL.0>
0

>  <SCORE.INTRA.SOLV>
-0.295188

>  <SCORE.INTRA.SOLV.lig_0>
-16.0602

>  <SCORE.INTRA.VDW>
0.0476256

>  <SCORE.INTRA.VDW.0>
-0.639572

>  <SCORE.INTRA.norm>
-0.0648247

>  <SCORE.RESTR>
0

>  <SCORE.RESTR.CAVITY>
0

>  <SCORE.RESTR.norm>
0

>  <SCORE.SYSTEM>
0

>  <SCORE.SYSTEM.CONST>
0

>  <SCORE.SYSTEM.DIHEDRAL>
0

>  <SCORE.SYSTEM.SOLV>
0

>  <SCORE.SYSTEM.norm>
0

>  <SCORE.heavy>
14

>  <SCORE.norm>
0.535175

$$$$
ligand.pdb
  rDOCK(R)          3D
libRbt.so/2013.1/901 2013/11/27
 14 14  0  0  0  0  0  0  0  0999 V2000
   12.6994  -10.2840  -15.7211 C   0  0  0  0  0  0
   13.7326   -7.3786   -8.3790 C   0  0  0  0  0  0
   12.6442  -10.6216  -14.2400 C   0  0  0  0  0  0
   13.0679   -9.4575  -13.3450 C   0  0  0  0  0  0
   13.4047   -8.9324  -10.9675 C   0  0  0  0  0  0
   13.4249   -8.7314   -8.4635 C   0  0  0  0  0  0
   13.2680   -9.4635   -7.2953 C   0  0  0  0  0  0
   13.4029   -8.8447   -6.0613 C   0  0  0  0  0  0
   13.7215   -7.5076   -5.9838 C   0  0  0  0  0  0
   13.8800   -6.7767   -7.1371 C   0  0  0  0  0  0
   13.0440   -9.8057  -11.9346 N   0  0  0  0  0  0
   13.2728   -9.4206   -9.6911 N   0  0  0  0  0  0
   13.8264   -7.7961  -11.2195 O   0  0  0  0  0  0
   11.3282  -11.0225  -13.8816 O   0  0  0  0  0  0
  2 10  2  0  0  0
  2  6  1  0  0  0
  3  4  1  0  0  0
  3  1  1  0  0  0
  4 11  1  0  0  0
  5 11  1  0  0  0
  5 12  1  0  0  0
  6  7  2  0  0  0
  7  8  1  0  0  0
  9  8  2  0  0  0
 10  9  1  0  0  0
 12  6  1  0  0  0
 13  5  2  0  0  0
 14  3  1  0  0  0
M  END
>  <CHROM.1>
-178.48308375,178.81875949,0.82208504,13.16631230,-9.03973834,-10.46303083
-1.90598411,1.10707815,1.56906386

>  <Name>
ligand.pdb

>  <RI>
3.29373e+07

>  <Rbt.Current_Directory>
/home/v/Downloads/rDock_2013.1_src/bin

>  <Rbt.Executable>
rbdock ($Id: //depot/dev/client3/rdock/2013.1/src/exe/rbdock.cxx#4 $)

>  <Rbt.Library>
libRbt.so (2013.1, Build901 2013/11/27)

>  <Rbt.Parameter_File>
/home/v/Downloads/rDock_2013.1_src/data/scripts/dock_solv.prm

>  <Rbt.Receptor>
/home/v/Desktop/r.prm

>  <SCORE>
7.49224

>  <SCORE.INTER>
8.4

>  <SCORE.INTER.CONST>
1

>  <SCORE.INTER.POLAR>
0

>  <SCORE.INTER.ROT>
3

>  <SCORE.INTER.SOLV>
0

>  <SCORE.INTER.VDW>
0

>  <SCORE.INTER.norm>
0.6

>  <SCORE.INTRA>
-0.90776

>  <SCORE.INTRA.DIHEDRAL>
-1.61148

>  <SCORE.INTRA.DIHEDRAL.0>
1.6411

>  <SCORE.INTRA.POLAR>
0

>  <SCORE.INTRA.POLAR.0>
0

>  <SCORE.INTRA.REPUL>
0

>  <SCORE.INTRA.REPUL.0>
0

>  <SCORE.INTRA.SOLV>
-0.295895

>  <SCORE.INTRA.SOLV.lig_0>
-16.0602

>  <SCORE.INTRA.VDW>
0.0459274

>  <SCORE.INTRA.VDW.0>
-0.639572

>  <SCORE.INTRA.norm>
-0.06484

>  <SCORE.RESTR>
0

>  <SCORE.RESTR.CAVITY>
0

>  <SCORE.RESTR.norm>
0

>  <SCORE.SYSTEM>
0

>  <SCORE.SYSTEM.CONST>
0

>  <SCORE.SYSTEM.DIHEDRAL>
0

>  <SCORE.SYSTEM.SOLV>
0

>  <SCORE.SYSTEM.norm>
0

>  <SCORE.heavy>
14

>  <SCORE.norm>
0.53516

$$$$
ligand.pdb
  rDOCK(R)          3D
libRbt.so/2013.1/901 2013/11/27
 14 14  0  0  0  0  0  0  0  0999 V2000
   15.8760  -10.8634  -10.6844 C   0  0  0  0  0  0
   10.2881   -5.6063   -8.5515 C   0  0  0  0  0  0
   15.1812   -9.5702  -11.0790 C   0  0  0  0  0  0
   14.0635   -9.1735  -10.1151 C   0  0  0  0  0  0
   12.3505   -7.4344   -9.8271 C   0  0  0  0  0  0
   10.8962   -5.3866   -9.7819 C   0  0  0  0  0  0
   10.5413   -4.2674  -10.5213 C   0  0  0  0  0  0
    9.6020   -3.3744  -10.0271 C   0  0  0  0  0  0
    8.9930   -3.6046   -8.8142 C   0  0  0  0  0  0
    9.3385   -4.7123   -8.0772 C   0  0  0  0  0  0
   13.3814   -7.9587  -10.5273 N   0  0  0  0  0  0
   11.8620   -6.2586  -10.3404 N   0  0  0  0  0  0
   11.8860   -7.9790   -8.8171 O   0  0  0  0  0  0
   16.1274   -8.5114  -11.1474 O   0  0  0  0  0  0
  2 10  2  0  0  0
  2  6  1  0  0  0
  3  4  1  0  0  0
  3  1  1  0  0  0
  4 11  1  0  0  0
  5 11  1  0  0  0
  5 12  1  0  0  0
  6  7  2  0  0  0
  7  8  1  0  0  0
  9  8  2  0  0  0
 10  9  1  0  0  0
 12  6  1  0  0  0
 13  5  2  0  0  0
 14  3  1  0  0  0
M  END
>  <CHROM.1>
-178.20431191,179.30735156,1.07276223,12.28724272,-6.87371593,-9.89880852
0.46029786,-0.65203518,2.53666339

>  <Name>
ligand.pdb

>  <RI>
3.29373e+07

>  <Rbt.Current_Directory>
/home/v/Downloads/rDock_2013.1_src/bin

>  <Rbt.Executable>
rbdock ($Id: //depot/dev/client3/rdock/2013.1/src/exe/rbdock.cxx#4 $)

>  <Rbt.Library>
libRbt.so (2013.1, Build901 2013/11/27)

>  <Rbt.Parameter_File>
/home/v/Downloads/rDock_2013.1_src/data/scripts/dock_solv.prm

>  <Rbt.Receptor>
/home/v/Desktop/r.prm

>  <SCORE>
7.49252

>  <SCORE.INTER>
8.4

>  <SCORE.INTER.CONST>
1

>  <SCORE.INTER.POLAR>
0

>  <SCORE.INTER.ROT>
3

>  <SCORE.INTER.SOLV>
0

>  <SCORE.INTER.VDW>
0

>  <SCORE.INTER.norm>
0.6

>  <SCORE.INTRA>
-0.907477

>  <SCORE.INTRA.DIHEDRAL>
-1.60744

>  <SCORE.INTRA.DIHEDRAL.0>
1.6411

>  <SCORE.INTRA.POLAR>
0

>  <SCORE.INTRA.POLAR.0>
0

>  <SCORE.INTRA.REPUL>
0

>  <SCORE.INTRA.REPUL.0>
0

>  <SCORE.INTRA.SOLV>
-0.296512

>  <SCORE.INTRA.SOLV.lig_0>
-16.0602

>  <SCORE.INTRA.VDW>
0.044499

>  <SCORE.INTRA.VDW.0>
-0.639572

>  <SCORE.INTRA.norm>
-0.0648198

>  <SCORE.RESTR>
0

>  <SCORE.RESTR.CAVITY>
0

>  <SCORE.RESTR.norm>
0

>  <SCORE.SYSTEM>
0

>  <SCORE.SYSTEM.CONST>
0

>  <SCORE.SYSTEM.DIHEDRAL>
0

>  <SCORE.SYSTEM.SOLV>
0

>  <SCORE.SYSTEM.norm>
0

>  <SCORE.heavy>
14

>  <SCORE.norm>
0.53518

$$$$
ligand.pdb
  rDOCK(R)          3D
libRbt.so/2013.1/901 2013/11/27
 14 14  0  0  0  0  0  0  0  0999 V2000
   16.7283  -10.4090  -14.7908 C   0  0  0  0  0  0
   16.2754   -6.8744   -7.6700 C   0  0  0  0  0  0
   16.5246  -10.6489  -13.3036 C   0  0  0  0  0  0
   16.6422   -9.3732  -12.4703 C   0  0  0  0  0  0
   16.5580   -8.6373  -10.1266 C   0  0  0  0  0  0
   16.1940   -8.2620   -7.6695 C   0  0  0  0  0  0
   15.9916   -8.9271   -6.4687 C   0  0  0  0  0  0
   15.8581   -8.2105   -5.2886 C   0  0  0  0  0  0
   15.9535   -6.8372   -5.2933 C   0  0  0  0  0  0
   16.1556   -6.1719   -6.4790 C   0  0  0  0  0  0
   16.4709   -9.6218  -11.0491 N   0  0  0  0  0  0
   16.3206   -9.0502   -8.8391 N   0  0  0  0  0  0
   16.8382   -7.4687  -10.4239 O   0  0  0  0  0  0
   15.2480  -11.2315  -13.0756 O   0  0  0  0  0  0
  2 10  2  0  0  0
  2  6  1  0  0  0
  3  4  1  0  0  0
  3  1  1  0  0  0
  4 11  1  0  0  0
  5 11  1  0  0  0
  5 12  1  0  0  0
  6  7  2  0  0  0
  7  8  1  0  0  0
  9  8  2  0  0  0
 10  9  1  0  0  0
 12  6  1  0  0  0
 13  5  2  0  0  0
 14  3  1  0  0  0
M  END
>  <CHROM.1>
-178.88975227,178.89034461,1.20371116,16.26847207,-8.74584867,-9.64899931
-1.47252740,1.23104135,1.08766601

>  <Name>
ligand.pdb

>  <RI>
3.29373e+07

>  <Rbt.Current_Directory>
/home/v/Downloads/rDock_2013.1_src/bin

>  <Rbt.Executable>
rbdock ($Id: //depot/dev/client3/rdock/2013.1/src/exe/rbdock.cxx#4 $)

>  <Rbt.Library>
libRbt.so (2013.1, Build901 2013/11/27)

>  <Rbt.Parameter_File>
/home/v/Downloads/rDock_2013.1_src/data/scripts/dock_solv.prm

>  <Rbt.Receptor>
/home/v/Desktop/r.prm

>  <SCORE>
7.49233

>  <SCORE.INTER>
8.4

>  <SCORE.INTER.CONST>
1

>  <SCORE.INTER.POLAR>
0

>  <SCORE.INTER.ROT>
3

>  <SCORE.INTER.SOLV>
0

>  <SCORE.INTER.VDW>
0

>  <SCORE.INTER.norm>
0.6

>  <SCORE.INTRA>
-0.907668

>  <SCORE.INTRA.DIHEDRAL>
-1.61381

>  <SCORE.INTRA.DIHEDRAL.0>
1.6411

>  <SCORE.INTRA.POLAR>
0

>  <SCORE.INTRA.POLAR.0>
0

>  <SCORE.INTRA.REPUL>
0

>  <SCORE.INTRA.REPUL.0>
0

>  <SCORE.INTRA.SOLV>
-0.294001

>  <SCORE.INTRA.SOLV.lig_0>
-16.0602

>  <SCORE.INTRA.VDW>
0.0462348

>  <SCORE.INTRA.VDW.0>
-0.639572

>  <SCORE.INTRA.norm>
-0.0648335

>  <SCORE.RESTR>
0

>  <SCORE.RESTR.CAVITY>
0

>  <SCORE.RESTR.norm>
0

>  <SCORE.SYSTEM>
0

>  <SCORE.SYSTEM.CONST>
0

>  <SCORE.SYSTEM.DIHEDRAL>
0

>  <SCORE.SYSTEM.SOLV>
0

>  <SCORE.SYSTEM.norm>
0

>  <SCORE.heavy>
14

>  <SCORE.norm>
0.535167

$$$$
ligand.pdb
  rDOCK(R)          3D
libRbt.so/2013.1/901 2013/11/27
 14 14  0  0  0  0  0  0  0  0999 V2000
   12.4214   -2.5652  -10.8089 C   0  0  0  0  0  0
   17.4938   -8.6985  -11.0476 C   0  0  0  0  0  0
   13.8310   -3.0163  -10.4623 C   0  0  0  0  0  0
   14.0777   -4.4938  -10.7651 C   0  0  0  0  0  0
   15.8542   -6.1836  -10.5907 C   0  0  0  0  0  0
   17.9625   -7.5408  -10.4376 C   0  0  0  0  0  0
   19.2705   -7.5016   -9.9761 C   0  0  0  0  0  0
   20.1000   -8.6015  -10.1375 C   0  0  0  0  0  0
   19.6261   -9.7503  -10.7298 C   0  0  0  0  0  0
   18.3309   -9.7967  -11.1878 C   0  0  0  0  0  0
   15.4225   -4.9149  -10.4115 N   0  0  0  0  0  0
   17.1672   -6.3853  -10.2444 N   0  0  0  0  0  0
   15.1198   -7.0826  -11.0207 O   0  0  0  0  0  0
   14.7806   -2.2353  -11.1761 O   0  0  0  0  0  0
  2 10  2  0  0  0
  2  6  1  0  0  0
  3  4  1  0  0  0
  3  1  1  0  0  0
  4 11  1  0  0  0
  5 11  1  0  0  0
  5 12  1  0  0  0
  6  7  2  0  0  0
  7  8  1  0  0  0
  9  8  2  0  0  0
 10  9  1  0  0  0
 12  6  1  0  0  0
 13  5  2  0  0  0
 14  3  1  0  0  0
M  END
>  <CHROM.1>
-179.19463557,179.77350707,0.30234838,16.42067803,-6.22586001,-10.65729110
2.32653073,-0.19977341,0.14918086

>  <Name>
ligand.pdb

>  <RI>
3.29373e+07

>  <Rbt.Current_Directory>
/home/v/Downloads/rDock_2013.1_src/bin

>  <Rbt.Executable>
rbdock ($Id: //depot/dev/client3/rdock/2013.1/src/exe/rbdock.cxx#4 $)

>  <Rbt.Library>
libRbt.so (2013.1, Build901 2013/11/27)

>  <Rbt.Parameter_File>
/home/v/Downloads/rDock_2013.1_src/data/scripts/dock_solv.prm

>  <Rbt.Receptor>
/home/v/Desktop/r.prm

>  <SCORE>
7.49252

>  <SCORE.INTER>
8.4

>  <SCORE.INTER.CONST>
1

>  <SCORE.INTER.POLAR>
0

>  <SCORE.INTER.ROT>
3

>  <SCORE.INTER.SOLV>
0

>  <SCORE.INTER.VDW>
0

>  <SCORE.INTER.norm>
0.6

>  <SCORE.INTRA>
-0.907476

>  <SCORE.INTRA.DIHEDRAL>
-1.62092

>  <SCORE.INTRA.DIHEDRAL.0>
1.6411

>  <SCORE.INTRA.POLAR>
0

>  <SCORE.INTRA.POLAR.0>
0

>  <SCORE.INTRA.REPUL>
0

>  <SCORE.INTRA.REPUL.0>
0

>  <SCORE.INTRA.SOLV>
-0.291485

>  <SCORE.INTRA.SOLV.lig_0>
-16.0602

>  <SCORE.INTRA.VDW>
0.0487259

>  <SCORE.INTRA.VDW.0>
-0.639572

>  <SCORE.INTRA.norm>
-0.0648197

>  <SCORE.RESTR>
0

>  <SCORE.RESTR.CAVITY>
0

>  <SCORE.RESTR.norm>
0

>  <SCORE.SYSTEM>
0

>  <SCORE.SYSTEM.CONST>
0

>  <SCORE.SYSTEM.DIHEDRAL>
0

>  <SCORE.SYSTEM.SOLV>
0

>  <SCORE.SYSTEM.norm>
0

>  <SCORE.heavy>
14

>  <SCORE.norm>
0.53518

$$$$
ligand.pdb
  rDOCK(R)          3D
libRbt.so/2013.1/901 2013/11/27
 14 14  0  0  0  0  0  0  0  0999 V2000
   10.1023   -6.9835  -16.4544 C   0  0  0  0  0  0
   15.4872   -7.2270  -10.5944 C   0  0  0  0  0  0
   10.5910   -6.2869  -15.1948 C   0  0  0  0  0  0
   11.7260   -7.0370  -14.4985 C   0  0  0  0  0  0
   13.1549   -6.8674  -12.5057 C   0  0  0  0  0  0
   14.5218   -6.2319  -10.4962 C   0  0  0  0  0  0
   14.5867   -5.3282   -9.4453 C   0  0  0  0  0  0
   15.6127   -5.4124   -8.5157 C   0  0  0  0  0  0
   16.5580   -6.4087   -8.6101 C   0  0  0  0  0  0
   16.4989   -7.3083   -9.6477 C   0  0  0  0  0  0
   12.1527   -6.3831  -13.2733 N   0  0  0  0  0  0
   13.4514   -6.0917  -11.4125 N   0  0  0  0  0  0
   13.7426   -7.9251  -12.7671 O   0  0  0  0  0  0
   11.0316   -4.9717  -15.5065 O   0  0  0  0  0  0
  2 10  2  0  0  0
  2  6  1  0  0  0
  3  4  1  0  0  0
  3  1  1  0  0  0
  4 11  1  0  0  0
  5 11  1  0  0  0
  5 12  1  0  0  0
  6  7  2  0  0  0
  7  8  1  0  0  0
  9  8  2  0  0  0
 10  9  1  0  0  0
 12  6  1  0  0  0
 13  5  2  0  0  0
 14  3  1  0  0  0
M  END
>  <CHROM.1>
-178.09322288,-179.21077018,0.82702030,13.42417627,-6.46652052,-12.19835294
-2.67296050,-0.79380183,0.61154256

>  <Name>
ligand.pdb

>  <RI>
3.29373e+07

>  <Rbt.Current_Directory>
/home/v/Downloads/rDock_2013.1_src/bin

>  <Rbt.Executable>
rbdock ($Id: //depot/dev/client3/rdock/2013.1/src/exe/rbdock.cxx#4 $)

>  <Rbt.Library>
libRbt.so (2013.1, Build901 2013/11/27)

>  <Rbt.Parameter_File>
/home/v/Downloads/rDock_2013.1_src/data/scripts/dock_solv.prm

>  <Rbt.Receptor>
/home/v/Desktop/r.prm

>  <SCORE>
7.49334

>  <SCORE.INTER>
8.4

>  <SCORE.INTER.CONST>
1

>  <SCORE.INTER.POLAR>
0

>  <SCORE.INTER.ROT>
3

>  <SCORE.INTER.SOLV>
0

>  <SCORE.INTER.VDW>
0

>  <SCORE.INTER.norm>
0.6

>  <SCORE.INTRA>
-0.90666

>  <SCORE.INTRA.DIHEDRAL>
-1.60697

>  <SCORE.INTRA.DIHEDRAL.0>
1.6411

>  <SCORE.INTRA.POLAR>
0

>  <SCORE.INTRA.POLAR.0>
0

>  <SCORE.INTRA.REPUL>
0

>  <SCORE.INTRA.REPUL.0>
0

>  <SCORE.INTRA.SOLV>
-0.294948

>  <SCORE.INTRA.SOLV.lig_0>
-16.0602

>  <SCORE.INTRA.VDW>
0.0443007

>  <SCORE.INTRA.VDW.0>
-0.639572

>  <SCORE.INTRA.norm>
-0.0647614

>  <SCORE.RESTR>
0

>  <SCORE.RESTR.CAVITY>
0

>  <SCORE.RESTR.norm>
0

>  <SCORE.SYSTEM>
0

>  <SCORE.SYSTEM.CONST>
0

>  <SCORE.SYSTEM.DIHEDRAL>
0

>  <SCORE.SYSTEM.SOLV>
0

>  <SCORE.SYSTEM.norm>
0

>  <SCORE.heavy>
14

>  <SCORE.norm>
0.535239

$$$$
ligand.pdb
  rDOCK(R)          3D
libRbt.so/2013.1/901 2013/11/27
 14 14  0  0  0  0  0  0  0  0999 V2000
    7.8182  -10.0238   -8.7201 C   0  0  0  0  0  0
    9.1635   -4.1734  -13.9504 C   0  0  0  0  0  0
    8.7954   -9.4943   -9.7571 C   0  0  0  0  0  0
    8.2830   -8.2498  -10.4813 C   0  0  0  0  0  0
    8.9686   -6.6744  -12.2390 C   0  0  0  0  0  0
   10.1082   -5.1924  -13.9169 C   0  0  0  0  0  0
   11.2308   -5.1006  -14.7273 C   0  0  0  0  0  0
   11.4102   -3.9966  -15.5476 C   0  0  0  0  0  0
   10.4643   -2.9972  -15.5870 C   0  0  0  0  0  0
    9.3489   -3.0824  -14.7880 C   0  0  0  0  0  0
    9.2164   -7.7695  -11.4857 N   0  0  0  0  0  0
    9.9842   -6.3432  -13.1013 N   0  0  0  0  0  0
    7.9105   -6.0367  -12.1596 O   0  0  0  0  0  0
   10.0396   -9.1887   -9.1410 O   0  0  0  0  0  0
  2 10  2  0  0  0
  2  6  1  0  0  0
  3  4  1  0  0  0
  3  1  1  0  0  0
  4 11  1  0  0  0
  5 11  1  0  0  0
  5 12  1  0  0  0
  6  7  2  0  0  0
  7  8  1  0  0  0
  9  8  2  0  0  0
 10  9  1  0  0  0
 12  6  1  0  0  0
 13  5  2  0  0  0
 14  3  1  0  0  0
M  END
>  <CHROM.1>
-178.95644122,-179.51341104,0.48197023,9.44252466,-6.41052240,-12.42460914
1.79413250,-0.30372553,2.41873415

>  <Name>
ligand.pdb

>  <RI>
3.29373e+07

>  <Rbt.Current_Directory>
/home/v/Downloads/rDock_2013.1_src/bin

>  <Rbt.Executable>
rbdock ($Id: //depot/dev/client3/rdock/2013.1/src/exe/rbdock.cxx#4 $)

>  <Rbt.Library>
libRbt.so (2013.1, Build901 2013/11/27)

>  <Rbt.Parameter_File>
/home/v/Downloads/rDock_2013.1_src/data/scripts/dock_solv.prm

>  <Rbt.Receptor>
/home/v/Desktop/r.prm

>  <SCORE>
7.49247

>  <SCORE.INTER>
8.4

>  <SCORE.INTER.CONST>
1

>  <SCORE.INTER.POLAR>
0

>  <SCORE.INTER.ROT>
3

>  <SCORE.INTER.SOLV>
0

>  <SCORE.INTER.VDW>
0

>  <SCORE.INTER.norm>
0.6

>  <SCORE.INTRA>
-0.907526

>  <SCORE.INTRA.DIHEDRAL>
-1.61848

>  <SCORE.INTRA.DIHEDRAL.0>
1.6411

>  <SCORE.INTRA.POLAR>
0

>  <SCORE.INTRA.POLAR.0>
0

>  <SCORE.INTRA.REPUL>
0

>  <SCORE.INTRA.REPUL.0>
0

>  <SCORE.INTRA.SOLV>
-0.291553

>  <SCORE.INTRA.SOLV.lig_0>
-16.0602

>  <SCORE.INTRA.VDW>
0.0474912

>  <SCORE.INTRA.VDW.0>
-0.639572

>  <SCORE.INTRA.norm>
-0.0648233

>  <SCORE.RESTR>
0

>  <SCORE.RESTR.CAVITY>
0

>  <SCORE.RESTR.norm>
0

>  <SCORE.SYSTEM>
0

>  <SCORE.SYSTEM.CONST>
0

>  <SCORE.SYSTEM.DIHEDRAL>
0

>  <SCORE.SYSTEM.SOLV>
0

>  <SCORE.SYSTEM.norm>
0

>  <SCORE.heavy>
14

>  <SCORE.norm>
0.535177

$$$$
ligand.pdb
  rDOCK(R)          3D
libRbt.so/2013.1/901 2013/11/27
 14 14  0  0  0  0  0  0  0  0999 V2000
   21.3884   -9.6836   -6.3353 C   0  0  0  0  0  0
   13.6326   -8.2829   -7.4717 C   0  0  0  0  0  0
   20.3416   -9.2976   -7.3676 C   0  0  0  0  0  0
   18.9203   -9.2942   -6.8058 C   0  0  0  0  0  0
   16.6061   -8.8969   -7.5327 C   0  0  0  0  0  0
   14.4385   -8.2124   -8.6021 C   0  0  0  0  0  0
   13.8700   -7.8561   -9.8167 C   0  0  0  0  0  0
   12.5170   -7.5606   -9.8932 C   0  0  0  0  0  0
   11.7212   -7.6456   -8.7732 C   0  0  0  0  0  0
   12.2773   -7.9995   -7.5670 C   0  0  0  0  0  0
   17.9289   -8.9435   -7.8084 N   0  0  0  0  0  0
   15.8249   -8.5003   -8.5896 N   0  0  0  0  0  0
   16.1458   -9.1973   -6.4235 O   0  0  0  0  0  0
   20.6310   -8.0096   -7.8952 O   0  0  0  0  0  0
  2 10  2  0  0  0
  2  6  1  0  0  0
  3  4  1  0  0  0
  3  1  1  0  0  0
  4 11  1  0  0  0
  5 11  1  0  0  0
  5 12  1  0  0  0
  6  7  2  0  0  0
  7  8  1  0  0  0
  9  8  2  0  0  0
 10  9  1  0  0  0
 12  6  1  0  0  0
 13  5  2  0  0  0
 14  3  1  0  0  0
M  END
>  <CHROM.1>
-179.11623871,179.11268015,0.76228182,16.31353865,-8.54750318,-7.87516587
0.26046757,-0.06237847,1.97570390

>  <Name>
ligand.pdb

>  <RI>
3.29373e+07

>  <Rbt.Current_Directory>
/home/v/Downloads/rDock_2013.1_src/bin

>  <Rbt.Executable>
rbdock ($Id: //depot/dev/client3/rdock/2013.1/src/exe/rbdock.cxx#4 $)

>  <Rbt.Library>
libRbt.so (2013.1, Build901 2013/11/27)

>  <Rbt.Parameter_File>
/home/v/Downloads/rDock_2013.1_src/data/scripts/dock_solv.prm

>  <Rbt.Receptor>
/home/v/Desktop/r.prm

>  <SCORE>
7.49233

>  <SCORE.INTER>
8.4

>  <SCORE.INTER.CONST>
1

>  <SCORE.INTER.POLAR>
0

>  <SCORE.INTER.ROT>
3

>  <SCORE.INTER.SOLV>
0

>  <SCORE.INTER.VDW>
0

>  <SCORE.INTER.norm>
0.6

>  <SCORE.INTRA>
-0.907672

>  <SCORE.INTRA.DIHEDRAL>
-1.61823

>  <SCORE.INTRA.DIHEDRAL.0>
1.6411

>  <SCORE.INTRA.POLAR>
0

>  <SCORE.INTRA.POLAR.0>
0

>  <SCORE.INTRA.REPUL>
0

>  <SCORE.INTRA.REPUL.0>
0

>  <SCORE.INTRA.SOLV>
-0.292701

>  <SCORE.INTRA.SOLV.lig_0>
-16.0602

>  <SCORE.INTRA.VDW>
0.0477957

>  <SCORE.INTRA.VDW.0>
-0.639572

>  <SCORE.INTRA.norm>
-0.0648337

>  <SCORE.RESTR>
0

>  <SCORE.RESTR.CAVITY>
0

>  <SCORE.RESTR.norm>
0

>  <SCORE.SYSTEM>
0

>  <SCORE.SYSTEM.CONST>
0

>  <SCORE.SYSTEM.DIHEDRAL>
0

>  <SCORE.SYSTEM.SOLV>
0

>  <SCORE.SYSTEM.norm>
0

>  <SCORE.heavy>
14

>  <SCORE.norm>
0.535166

$$$$
ligand.pdb
  rDOCK(R)          3D
libRbt.so/2013.1/901 2013/11/27
 14 14  0  0  0  0  0  0  0  0999 V2000
   21.2258  -14.6294   -7.6392 C   0  0  0  0  0  0
   16.3531  -11.4110  -13.0533 C   0  0  0  0  0  0
   21.1642  -13.9593   -9.0023 C   0  0  0  0  0  0
   19.7369  -13.6513   -9.4534 C   0  0  0  0  0  0
   18.5296  -12.6943  -11.3687 C   0  0  0  0  0  0
   17.6966  -11.4788  -13.4032 C   0  0  0  0  0  0
   18.1075  -10.9435  -14.6156 C   0  0  0  0  0  0
   17.1873  -10.3363  -15.4573 C   0  0  0  0  0  0
   15.8557  -10.2845  -15.1118 C   0  0  0  0  0  0
   15.4414  -10.8142  -13.9130 C   0  0  0  0  0  0
   19.6920  -13.0380  -10.7698 N   0  0  0  0  0  0
   18.6843  -12.0834  -12.5883 N   0  0  0  0  0  0
   17.4247  -12.9235  -10.8595 O   0  0  0  0  0  0
   21.9122  -12.7505   -8.9838 O   0  0  0  0  0  0
  2 10  2  0  0  0
  2  6  1  0  0  0
  3  4  1  0  0  0
  3  1  1  0  0  0
  4 11  1  0  0  0
  5 11  1  0  0  0
  5 12  1  0  0  0
  6  7  2  0  0  0
  7  8  1  0  0  0
  9  8  2  0  0  0
 10  9  1  0  0  0
 12  6  1  0  0  0
 13  5  2  0  0  0
 14  3  1  0  0  0
M  END
>  <CHROM.1>
-178.73854121,179.33742451,0.40106587,18.58364022,-12.27152600,-11.74716404
0.97224236,0.06929014,2.10410515

>  <Name>
ligand.pdb

>  <RI>
3.29373e+07

>  <Rbt.Current_Directory>
/home/v/Downloads/rDock_2013.1_src/bin

>  <Rbt.Executable>
rbdock ($Id: //depot/dev/client3/rdock/2013.1/src/exe/rbdock.cxx#4 $)

>  <Rbt.Library>
libRbt.so (2013.1, Build901 2013/11/27)

>  <Rbt.Parameter_File>
/home/v/Downloads/rDock_2013.1_src/data/scripts/dock_solv.prm

>  <Rbt.Receptor>
/home/v/Desktop/r.prm

>  <SCORE>
7.49201

>  <SCORE.INTER>
8.4

>  <SCORE.INTER.CONST>
1

>  <SCORE.INTER.POLAR>
0

>  <SCORE.INTER.ROT>
3

>  <SCORE.INTER.SOLV>
0

>  <SCORE.INTER.VDW>
0

>  <SCORE.INTER.norm>
0.6

>  <SCORE.INTRA>
-0.907986

>  <SCORE.INTRA.DIHEDRAL>
-1.61657

>  <SCORE.INTRA.DIHEDRAL.0>
1.6411

>  <SCORE.INTRA.POLAR>
0

>  <SCORE.INTRA.POLAR.0>
0

>  <SCORE.INTRA.REPUL>
0

>  <SCORE.INTRA.REPUL.0>
0

>  <SCORE.INTRA.SOLV>
-0.294089

>  <SCORE.INTRA.SOLV.lig_0>
-16.0602

>  <SCORE.INTRA.VDW>
0.0473426

>  <SCORE.INTRA.VDW.0>
-0.639572

>  <SCORE.INTRA.norm>
-0.0648562

>  <SCORE.RESTR>
0

>  <SCORE.RESTR.CAVITY>
0

>  <SCORE.RESTR.norm>
0

>  <SCORE.SYSTEM>
0

>  <SCORE.SYSTEM.CONST>
0

>  <SCORE.SYSTEM.DIHEDRAL>
0

>  <SCORE.SYSTEM.SOLV>
0

>  <SCORE.SYSTEM.norm>
0

>  <SCORE.heavy>
14

>  <SCORE.norm>
0.535144

$$$$
ligand.pdb
  rDOCK(R)          3D
libRbt.so/2013.1/901 2013/11/27
 14 14  0  0  0  0  0  0  0  0999 V2000
   12.3107   -8.9441   -5.4087 C   0  0  0  0  0  0
   19.2338  -11.4851   -8.4137 C   0  0  0  0  0  0
   13.0856   -9.1850   -6.6941 C   0  0  0  0  0  0
   14.5162   -9.6636   -6.4493 C   0  0  0  0  0  0
   16.5400  -10.2773   -7.7021 C   0  0  0  0  0  0
   18.3072  -11.0056   -9.3321 C   0  0  0  0  0  0
   18.6086  -11.0555  -10.6856 C   0  0  0  0  0  0
   19.8146  -11.5918  -11.1120 C   0  0  0  0  0  0
   20.7343  -12.0523  -10.1971 C   0  0  0  0  0  0
   20.4430  -12.0044   -8.8545 C   0  0  0  0  0  0
   15.2553   -9.8562   -7.6852 N   0  0  0  0  0  0
   17.0594  -10.4482   -8.9613 N   0  0  0  0  0  0
   17.1884  -10.4792   -6.6671 O   0  0  0  0  0  0
   12.4100  -10.1448   -7.4962 O   0  0  0  0  0  0
  2 10  2  0  0  0
  2  6  1  0  0  0
  3  4  1  0  0  0
  3  1  1  0  0  0
  4 11  1  0  0  0
  5 11  1  0  0  0
  5 12  1  0  0  0
  6  7  2  0  0  0
  7  8  1  0  0  0
  9  8  2  0  0  0
 10  9  1  0  0  0
 12  6  1  0  0  0
 13  5  2  0  0  0
 14  3  1  0  0  0
M  END
>  <CHROM.1>
-178.49927907,-179.96551883,-0.02415856,16.68594480,-10.54947304,-8.18288162
-2.65745602,0.25545589,-1.68755999

>  <Name>
ligand.pdb

>  <RI>
3.29373e+07

>  <Rbt.Current_Directory>
/home/v/Downloads/rDock_2013.1_src/bin

>  <Rbt.Executable>
rbdock ($Id: //depot/dev/client3/rdock/2013.1/src/exe/rbdock.cxx#4 $)

>  <Rbt.Library>
libRbt.so (2013.1, Build901 2013/11/27)

>  <Rbt.Parameter_File>
/home/v/Downloads/rDock_2013.1_src/data/scripts/dock_solv.prm

>  <Rbt.Receptor>
/home/v/Desktop/r.prm

>  <SCORE>
7.49249

>  <SCORE.INTER>
8.4

>  <SCORE.INTER.CONST>
1

>  <SCORE.INTER.POLAR>
0

>  <SCORE.INTER.ROT>
3

>  <SCORE.INTER.SOLV>
0

>  <SCORE.INTER.VDW>
0

>  <SCORE.INTER.norm>
0.6

>  <SCORE.INTRA>
-0.907514

>  <SCORE.INTRA.DIHEDRAL>
-1.6152

>  <SCORE.INTRA.DIHEDRAL.0>
1.6411

>  <SCORE.INTRA.POLAR>
0

>  <SCORE.INTRA.POLAR.0>
0

>  <SCORE.INTRA.REPUL>
0

>  <SCORE.INTRA.REPUL.0>
0

>  <SCORE.INTRA.SOLV>
-0.294224

>  <SCORE.INTRA.SOLV.lig_0>
-16.0602

>  <SCORE.INTRA.VDW>
0.0472006

>  <SCORE.INTRA.VDW.0>
-0.639572

>  <SCORE.INTRA.norm>
-0.0648224

>  <SCORE.RESTR>
0

>  <SCORE.RESTR.CAVITY>
0

>  <SCORE.RESTR.norm>
0

>  <SCORE.SYSTEM>
0

>  <SCORE.SYSTEM.CONST>
0

>  <SCORE.SYSTEM.DIHEDRAL>
0

>  <SCORE.SYSTEM.SOLV>
0

>  <SCORE.SYSTEM.norm>
0

>  <SCORE.heavy>
14

>  <SCORE.norm>
0.535178

$$$$
ligand.pdb
  rDOCK(R)          3D
libRbt.so/2013.1/901 2013/11/27
 14 14  0  0  0  0  0  0  0  0999 V2000
    8.4783   -3.7588   -9.9481 C   0  0  0  0  0  0
   12.6317   -8.8105   -5.4051 C   0  0  0  0  0  0
    9.7409   -4.6020   -9.8748 C   0  0  0  0  0  0
    9.9067   -5.3155   -8.5335 C   0  0  0  0  0  0
   11.4830   -6.7986   -7.3685 C   0  0  0  0  0  0
   13.2182   -8.4505   -6.6128 C   0  0  0  0  0  0
   14.4302   -9.0220   -6.9729 C   0  0  0  0  0  0
   15.0372   -9.9514   -6.1412 C   0  0  0  0  0  0
   14.4586  -10.2936   -4.9399 C   0  0  0  0  0  0
   13.2588   -9.7302   -4.5761 C   0  0  0  0  0  0
   11.1323   -6.0930   -8.4672 N   0  0  0  0  0  0
   12.6491   -7.5100   -7.5055 N   0  0  0  0  0  0
   10.8108   -6.7907   -6.3290 O   0  0  0  0  0  0
    9.7389   -5.5715  -10.9147 O   0  0  0  0  0  0
  2 10  2  0  0  0
  2  6  1  0  0  0
  3  4  1  0  0  0
  3  1  1  0  0  0
  4 11  1  0  0  0
  5 11  1  0  0  0
  5 12  1  0  0  0
  6  7  2  0  0  0
  7  8  1  0  0  0
  9  8  2  0  0  0
 10  9  1  0  0  0
 12  6  1  0  0  0
 13  5  2  0  0  0
 14  3  1  0  0  0
M  END
>  <CHROM.1>
-178.69743935,179.61012140,0.49112259,11.82341614,-7.24267440,-7.48058898
2.37534190,0.62907440,-1.26782429

>  <Name>
ligand.pdb

>  <RI>
3.29373e+07

>  <Rbt.Current_Directory>
/home/v/Downloads/rDock_2013.1_src/bin

>  <Rbt.Executable>
rbdock ($Id: //depot/dev/client3/rdock/2013.1/src/exe/rbdock.cxx#4 $)

>  <Rbt.Library>
libRbt.so (2013.1, Build901 2013/11/27)

>  <Rbt.Parameter_File>
/home/v/Downloads/rDock_2013.1_src/data/scripts/dock_solv.prm

>  <Rbt.Receptor>
/home/v/Desktop/r.prm

>  <SCORE>
7.49197

>  <SCORE.INTER>
8.4

>  <SCORE.INTER.CONST>
1

>  <SCORE.INTER.POLAR>
0

>  <SCORE.INTER.ROT>
3

>  <SCORE.INTER.SOLV>
0

>  <SCORE.INTER.VDW>
0

>  <SCORE.INTER.norm>
0.6

>  <SCORE.INTRA>
-0.908029

>  <SCORE.INTRA.DIHEDRAL>
-1.61612

>  <SCORE.INTRA.DIHEDRAL.0>
1.6411

>  <SCORE.INTRA.POLAR>
0

>  <SCORE.INTRA.POLAR.0>
0

>  <SCORE.INTRA.REPUL>
0

>  <SCORE.INTRA.REPUL.0>
0

>  <SCORE.INTRA.SOLV>
-0.29391

>  <SCORE.INTRA.SOLV.lig_0>
-16.0602

>  <SCORE.INTRA.VDW>
0.0469864

>  <SCORE.INTRA.VDW.0>
-0.639572

>  <SCORE.INTRA.norm>
-0.0648592

>  <SCORE.RESTR>
0

>  <SCORE.RESTR.CAVITY>
0

>  <SCORE.RESTR.norm>
0

>  <SCORE.SYSTEM>
0

>  <SCORE.SYSTEM.CONST>
0

>  <SCORE.SYSTEM.DIHEDRAL>
0

>  <SCORE.SYSTEM.SOLV>
0

>  <SCORE.SYSTEM.norm>
0

>  <SCORE.heavy>
14

>  <SCORE.norm>
0.535141

$$$$
ligand.pdb
  rDOCK(R)          3D
libRbt.so/2013.1/901 2013/11/27
 14 14  0  0  0  0  0  0  0  0999 V2000
   20.3469   -8.2697   -7.6891 C   0  0  0  0  0  0
   14.1906   -4.4250  -10.9660 C   0  0  0  0  0  0
   18.9477   -7.7333   -7.4334 C   0  0  0  0  0  0
   18.3673   -6.9816   -8.6308 C   0  0  0  0  0  0
   16.3448   -5.7455   -9.2815 C   0  0  0  0  0  0
   14.0641   -4.7485   -9.6202 C   0  0  0  0  0  0
   12.8802   -4.4494   -8.9612 C   0  0  0  0  0  0
   11.8340   -3.8485   -9.6455 C   0  0  0  0  0  0
   11.9702   -3.5177  -10.9749 C   0  0  0  0  0  0
   13.1408   -3.8097  -11.6335 C   0  0  0  0  0  0
   17.0428   -6.4486   -8.3614 N   0  0  0  0  0  0
   15.0934   -5.3632   -8.8665 N   0  0  0  0  0  0
   16.8053   -5.4659  -10.3961 O   0  0  0  0  0  0
   18.0729   -8.8007   -7.0919 O   0  0  0  0  0  0
  2 10  2  0  0  0
  2  6  1  0  0  0
  3  4  1  0  0  0
  3  1  1  0  0  0
  4 11  1  0  0  0
  5 11  1  0  0  0
  5 12  1  0  0  0
  6  7  2  0  0  0
  7  8  1  0  0  0
  9  8  2  0  0  0
 10  9  1  0  0  0
 12  6  1  0  0  0
 13  5  2  0  0  0
 14  3  1  0  0  0
M  END
>  <CHROM.1>
-178.67455557,179.83790543,-0.21233060,15.77872901,-5.77233655,-9.20937234
-0.58129042,0.32528587,-1.05126598

>  <Name>
ligand.pdb

>  <RI>
3.29373e+07

>  <Rbt.Current_Directory>
/home/v/Downloads/rDock_2013.1_src/bin

>  <Rbt.Executable>
rbdock ($Id: //depot/dev/client3/rdock/2013.1/src/exe/rbdock.cxx#4 $)

>  <Rbt.Library>
libRbt.so (2013.1, Build901 2013/11/27)

>  <Rbt.Parameter_File>
/home/v/Downloads/rDock_2013.1_src/data/scripts/dock_solv.prm

>  <Rbt.Receptor>
/home/v/Desktop/r.prm

>  <SCORE>
7.49254

>  <SCORE.INTER>
8.4

>  <SCORE.INTER.CONST>
1

>  <SCORE.INTER.POLAR>
0

>  <SCORE.INTER.ROT>
3

>  <SCORE.INTER.SOLV>
0

>  <SCORE.INTER.VDW>
0

>  <SCORE.INTER.norm>
0.6

>  <SCORE.INTRA>
-0.907456

>  <SCORE.INTRA.DIHEDRAL>
-1.61726

>  <SCORE.INTRA.DIHEDRAL.0>
1.6411

>  <SCORE.INTRA.POLAR>
0

>  <SCORE.INTRA.POLAR.0>
0

>  <SCORE.INTRA.REPUL>
0

>  <SCORE.INTRA.REPUL.0>
0

>  <SCORE.INTRA.SOLV>
-0.293722

>  <SCORE.INTRA.SOLV.lig_0>
-16.0602

>  <SCORE.INTRA.VDW>
0.0480365

>  <SCORE.INTRA.VDW.0>
-0.639572

>  <SCORE.INTRA.norm>
-0.0648183

>  <SCORE.RESTR>
0

>  <SCORE.RESTR.CAVITY>
0

>  <SCORE.RESTR.norm>
0

>  <SCORE.SYSTEM>
0

>  <SCORE.SYSTEM.CONST>
0

>  <SCORE.SYSTEM.DIHEDRAL>
0

>  <SCORE.SYSTEM.SOLV>
0

>  <SCORE.SYSTEM.norm>
0

>  <SCORE.heavy>
14

>  <SCORE.norm>
0.535182

$$$$
